@<TRIPOS>MOLECULE
Name
 250 42 0 0 0
SMALL
GASTEIGER

@<TRIPOS>ATOM
      1 O         -24.9110    6.4440  -78.3120 O.3     1  HOH1        0.0000
      2 C         -22.5900   11.0640  -82.1960 C.3     2  LIG2        0.0000
      3 H         -25.1390   11.8710  -82.9680 H       3  UNK3        0.0000
      4 H         -25.4850    9.9600  -80.5520 H       4  UNK4        0.0000
      5 N         -21.2160   12.9320  -81.4480 N.3     5  LIG5        0.0000
      6 H         -21.2360   14.9590  -81.8240 H       6  UNK6        0.0000
      7 C         -19.8490   14.5940  -80.2320 C.3     3  UNK3        0.0000
      8 H         -17.2270   15.3170  -80.9620 H       7  UNK7        0.0000
      9 C         -19.1500   15.9170  -80.2740 C.3     3  UNK3        0.0000
     10 C         -21.8440   15.7350  -86.3670 C.3     8  LIG8        0.0000
     11 O         -19.8960   15.9130  -93.6400 O.3     9  HOH9        0.0000
     12 C         -17.0820   22.0120  -93.4560 C.3    10  LIG10       0.0000
     13 C         -24.4090   14.5630  -89.3440 C.3     6  UNK6        0.0000
     14 C         -25.7720   14.6630  -89.4580 C.3     6  UNK6        0.0000
     15 H         -28.3520   15.7880  -92.6380 H      11  UNK11       0.0000
     16 C         -33.3480   16.1030  -93.0280 C.3    12  LIG12       0.0000
     17 H         -36.6520   13.7700  -91.7920 H      13  UNK13       0.0000
     18 H         -37.1220   12.1260  -89.7870 H      14  UNK14       0.0000
     19 C         -36.7440   11.3010  -91.7590 C.3    15  LIG15      -0.0531
     20 H         -36.9110   10.2340  -91.4970 H       8  LIG8        0.0265
     21 H         -37.6930   11.7140  -92.1630 H       8  LIG8        0.0265
     22 H         -35.3450   10.3660  -89.5950 H      16  UNK16       0.0000
     23 C         -35.1810   14.5680  -88.7690 C.2    17  LIG17       0.3202
     24 O         -35.4760   14.0400  -87.6940 O.2    17  LIG17      -0.2633
     25 N         -33.9770   15.0750  -89.0260 N.am   17  LIG17      -0.1959
     26 C         -32.8830   15.0150  -88.0570 C.3    17  LIG17       0.1390
     27 C         -30.3940   15.3980  -87.6940 C.3    18  LIG18      -0.0531
     28 H         -29.4460   15.7140  -88.1780 H       9  HOH9        0.0265
     29 H         -30.2100   14.4400  -87.1640 H       9  HOH9        0.0265
     30 H         -30.9450   13.1670  -89.0950 H      19  UNK19       0.0000
     31 H         -32.0960   13.8490  -90.2880 H      20  UNK20       0.0000
     32 C         -34.2550   20.7140  -85.8430 C.3    21  LIG21       0.0000
     33 C         -33.1360   21.9500  -83.6190 C.3    22  LIG22       0.0000
     34 H         -40.3190   16.0630  -88.2210 H      23  UNK23       0.0000
     35 H         -41.9050   14.3360  -88.7810 H      24  UNK24       0.0000
     36 O         -37.0760   15.4940  -82.9810 O.3    25  HOH25       0.0000
     37 C         -33.5840   11.5460  -83.4670 C.3    12  LIG12       0.0000
     38 H         -34.1820    8.6640  -81.7470 H      26  UNK26       0.0000
     39 C         -32.3100    9.7010  -81.7900 C.3    27  LIG27       0.0000
     40 C         -32.2450   11.7090  -83.1050 C.3    12  LIG12       0.0000
     41 H         -30.5770   10.9540  -81.9880 H      28  UNK28       0.0000
     42 O         -34.2730   13.8240  -81.3690 O.3    29  HOH29       0.0000
     43 N         -34.7460   17.2110  -81.2270 N.3    30  LIG30       0.0000
     44 O         -36.4810   17.0720  -78.1660 O.3    31  HOH31       0.0000
     45 N         -36.8230   15.7220  -79.9400 N.3    32  LIG32       0.0000
     46 H         -38.7740   12.9510  -79.4560 H      33  UNK33       0.0000
     47 H         -33.4720   17.3220  -77.0450 H      34  UNK34       0.0000
     48 H         -31.5840   16.0640  -78.0700 H      35  UNK35       0.0000
     49 H         -31.1890   17.7550  -77.7140 H      36  UNK36       0.0000
     50 N         -28.9540   16.4390  -77.1880 N.3    16  UNK16      -0.1297
     51 C         -27.7780   15.9610  -76.7910 C.3    16  UNK16       0.1297
     52 O         -34.0450   15.7280  -73.6100 O.3    37  HOH37       0.0000
     53 H         -39.4490   10.6350  -74.1760 H      38  UNK38       0.0000
     54 N         -35.3430   13.4650  -71.8630 N.3    39  LIG39       0.0000
     55 H         -31.4280   10.5840  -70.5250 H      40  UNK40       0.0000
     56 H         -31.7850   11.0190  -72.8960 H      41  UNK41       0.0000
     57 N         -36.0090   15.2390  -69.8700 N.3    42  LIG42       0.0000
     58 C         -35.2740   18.0520  -70.1470 C.3    19  UNK19       0.0000
     59 C         -34.0780   18.0680  -69.1910 C.3    19  UNK19       0.0000
     60 O         -38.8080   15.4530  -69.1960 O.3    43  HOH43       0.0000
     61 N         -38.0910   15.8000  -67.0810 N.3    44  LIG44       0.0000
     62 H         -39.8360   14.7010  -66.9650 H      45  UNK45       0.0000
     63 H         -41.7200   15.5640  -67.6270 H      46  UNK46       0.0000
     64 O         -42.9390   19.3300  -69.1750 O.3    47  HOH47       0.0000
     65 H         -43.1190   20.9570  -65.1310 H      48  UNK48       0.0000
     66 C         -41.7180   18.9170  -63.1880 C.3    21  LIG21      -0.0049
     67 C         -41.4090   20.3820  -62.8660 C.3    21  LIG21      -0.0264
     68 H         -40.7780   20.8070  -63.6790 H      21  LIG21       0.0313
     69 H         -32.7440   18.8130  -61.6040 H      49  UNK49       0.0000
     70 C         -33.3390   16.9690  -62.4040 C.3    50  LIG50       0.0000
     71 O         -14.9100   28.9790  -78.0700 O.3    51  HOH51       0.0000
     72 C         -14.0430   27.0410  -81.1220 C.3    52  LIG52       0.0000
     73 C         -16.9010   24.6920  -79.8760 C.3    53  LIG53       0.0000
     74 C         -16.8920   36.5750  -77.7380 C.3    54  LIG54       0.0000
     75 C         -21.2700   35.3570  -77.6390 C.3    55  LIG55       0.0000
     76 C         -22.1770   30.8650  -77.3660 C.3    56  LIG56       0.0000
     77 C         -30.9130   33.6520  -73.9450 C.3    57  LIG57       0.0000
     78 N         -30.1780   35.4250  -68.1520 N.3    29  HOH29      -0.1297
     79 C         -30.5540   36.1900  -66.9670 C.3    29  HOH29       0.1297
     80 C         -34.8850   35.1980  -70.1570 C.3    58  LIG58       0.0000
     81 C         -35.1500   31.6850  -67.3430 C.3    59  LIG59       0.0000
     82 H         -35.2360   32.1520  -70.0150 H      60  UNK60       0.0000
     83 C         -33.4170   31.2490  -70.7120 C.3    61  LIG61       0.0000
     84 C         -33.8590   32.3540  -65.2480 C.3    62  LIG62       0.0000
     85 H         -32.1710   33.3430  -65.9050 H      63  UNK63       0.0000
     86 C         -30.3600   32.1980  -64.3490 C.3    64  LIG64       0.0000
     87 O         -43.2060   31.4620  -63.6000 O.3    65  HOH65       0.0000
     88 H         -42.0010   29.5370  -62.9950 H      66  UNK66       0.0000
     89 O         -39.5510   28.4740  -67.9980 O.3    67  HOH67       0.0000
     90 C         -39.3850   33.6590  -72.6160 C.2    35  UNK35       0.3411
     91 O         -40.1730   33.5450  -73.5590 O.2    35  UNK35      -0.2615
     92 N         -39.5760   34.5160  -71.6150 N.am   35  UNK35      -0.0796
     93 H         -41.9370   34.2790  -70.1990 H      68  UNK68       0.0000
     94 H         -37.1670   36.6580  -74.0830 H      69  UNK69       0.0000
     95 N         -38.0890   36.9890  -67.0820 N.3    70  LIG70       0.0000
     96 C         -41.1380   35.7730  -77.3370 C.3    71  LIG71       0.0000
     97 H         -42.0630   33.9470  -76.5730 H      72  UNK72       0.0000
     98 C         -42.5690   36.4860  -75.3180 C.3    73  LIG73       0.0000
     99 C         -39.5670   35.1800  -79.2500 C.3    74  LIG74       0.0000
    100 H         -40.7590   34.6910  -82.2870 H      75  UNK75       0.0000
    101 O         -37.9400   33.6720  -82.4130 O.3    76  HOH76       0.0000
    102 C         -35.8350   35.7300  -81.8130 C.3    77  LIG77       0.0000
    103 O         -34.3010   30.2650  -81.2380 O.3    78  HOH78       0.0000
    104 C         -35.3010   31.4960  -86.8440 C.3    79  LIG79       0.0000
    105 C         -33.3640   31.9130  -83.5560 C.3    80  LIG80       0.0000
    106 C         -34.8480   26.5700  -81.3700 C.3    81  LIG81       0.0000
    107 O         -33.9390   28.2180  -88.0660 O.3    82  HOH82       0.0000
    108 C         -25.8100   29.2650  -80.2950 C.3    83  LIG83       0.0000
    109 H         -28.8150   24.2210  -79.7790 H      84  UNK84       0.0000
    110 C         -28.5470   26.5590  -78.4510 C.3    85  LIG85      -0.0309
    111 H         -27.8180   26.2780  -77.6600 H      45  UNK45       0.0309
    112 C         -23.9410   26.5020  -83.5460 C.2    46  UNK46       0.1134
    113 N         -23.4570   27.6820  -83.1640 N.2    46  UNK46      -0.2652
    114 C         -22.0360   27.9060  -82.9070 C.3    46  UNK46       0.1518
    115 O         -20.4570   26.5320  -81.7190 O.3    86  HOH86       0.0000
    116 N         -22.3840   27.0550  -80.6620 N.3    87  LIG87       0.0000
    117 H         -24.0980   26.4550  -75.0660 H      88  UNK88       0.0000
    118 H         -24.5440   27.7140  -76.2610 H      89  UNK89       0.0000
    119 N         -22.7000   24.2460  -80.4360 N.3    90  LIG90       0.0000
    120 O         -20.7960   21.3890  -81.3220 O.3    91  HOH91       0.0000
    121 C         -19.9310   23.0480  -83.4040 C.3    92  LIG92       0.0000
    122 C         -22.7650   18.6100  -82.0510 C.3    93  LIG93       0.0000
    123 O         -24.2470   17.9920  -80.2800 O.3    94  HOH94       0.0000
    124 H         -27.9870   19.5170  -86.6530 H      95  UNK95       0.0000
    125 C         -30.1130   23.4560  -86.9050 C.3    96  LIG96       0.0000
    126 C         -28.6040   22.9900  -84.7800 C.3    97  LIG97       0.0000
    127 H         -28.2100   21.0010  -83.9890 H      98  UNK98       0.0000
    128 N         -32.4650   24.0360  -87.1000 N.3    99  LIG99       0.0000
    129 C         -35.8070   24.3860  -90.7710 C.3   100  LIG100     -0.0309
    130 H         -36.1830   25.1990  -91.4330 H      54  LIG54       0.0309
    131 H         -38.0980   23.9150  -92.1390 H     101  UNK101      0.0000
    132 H         -37.3410   26.8160  -82.8110 H     102  UNK102      0.0000
    133 H         -40.4310   29.7010  -82.1210 H     103  UNK103      0.0000
    134 O         -41.4620   24.7580  -88.5220 O.3   104  HOH104      0.0000
    135 O         -40.4480   23.1380  -89.6070 O.3   105  HOH105      0.0000
    136 H         -42.5980   27.5660  -83.1290 H     106  UNK106      0.0000
    137 C         -43.5630   20.9630  -86.7930 C.3   107  LIG107      0.0000
    138 H         -41.8490   18.9990  -87.1770 H     108  UNK108      0.0000
    139 H         -40.3110   19.2360  -88.8480 H     109  UNK109      0.0000
    140 C         -42.5520   12.9920  -83.4080 C.2    56  LIG56       0.2794
    141 O         -42.9630   12.5080  -84.4630 O.2    56  LIG56      -0.2794
    142 H         -43.1990   17.2100  -78.3090 H     110  UNK110      0.0000
    143 H         -41.1200   17.5580  -77.0600 H     111  UNK111      0.0000
    144 H         -39.5190   19.2650  -76.2800 H     112  UNK112      0.0000
    145 H         -42.6410   22.1960  -76.3210 H     113  UNK113      0.0000
    146 C         -39.7760   24.6820  -65.2510 C.3   114  LIG114      0.0000
    147 O         -37.6030   23.7130  -65.5490 O.3   115  HOH115      0.0000
    148 N         -37.6850   25.8460  -64.8280 N.3    58  LIG58      -0.1297
    149 C         -36.2330   26.0260  -64.8530 C.3    58  LIG58       0.1297
    150 H         -36.1010   28.5330  -68.1430 H     116  UNK116      0.0000
    151 O         -32.0400   25.0340  -63.2480 O.3   117  HOH117      0.0000
    152 H         -29.6910   20.4930  -63.1870 H     118  UNK118      0.0000
    153 C         -29.3920   25.0540  -69.7850 C.3   119  LIG119      0.0000
    154 C         -28.6290   25.4850  -65.2160 C.2    60  UNK60       0.2794
    155 O         -27.7670   25.9700  -65.9490 O.2    60  UNK60      -0.2794
    156 N         -24.7780   24.6770  -64.2370 N.3    61  LIG61      -0.1297
    157 C         -23.9180   24.3730  -65.3850 C.3    61  LIG61       0.1297
    158 C         -25.8810   28.2890  -67.3530 C.3   120  LIG120      0.0000
    159 C         -21.6590   29.1790  -63.3290 C.3   121  LIG121      0.0000
    160 C         -20.6890   29.5310  -65.6350 C.3    64  LIG64       0.1297
    161 N         -20.7520   30.2230  -66.7720 N.3    64  LIG64      -0.1297
    162 C         -23.3750   27.5400  -72.6690 C.3   122  LIG122      0.0000
    163 C         -15.9350   32.6180  -66.7230 C.3   123  LIG123      0.0000
    164 C         -14.1300   29.6890  -67.9200 C.3   124  LIG124      0.0000
    165 C         -17.2080   31.6130  -73.3900 C.3   125  LIG125      0.0000
    166 N         -12.5290   37.4700  -70.3210 N.3   126  LIG126      0.0000
    167 C         -11.7260   36.0220  -78.1580 C.3   127  LIG127     -0.0309
    168 H         -12.5510   35.6900  -78.7760 H      70  LIG70       0.0309
    169 N         -13.0940   34.8850  -76.5010 N.3   128  LIG128      0.0000
    170 C         -13.2940   29.1940  -63.1460 C.3   129  LIG129      0.0000
    171 C         -20.1630   11.6670  -65.9250 C.3   130  LIG130      0.0000
    172 H         -24.7760    9.4770  -64.1100 H     131  UNK131      0.0000
    173 C         -24.9040    6.5770  -63.7480 C.3   132  LIG132     -0.0309
    174 H         -25.0870    5.5830  -64.2150 H      74  LIG74       0.0309
    175 N         -33.5730   13.9470  -65.4630 N.3   133  LIG133      0.0000
    176 N         -33.7010   12.4570  -67.2010 N.3   134  LIG134      0.0000
    177 O         -30.6340   10.9780  -66.9100 O.3   135  HOH135      0.0000
    178 C         -30.4120   16.2840  -67.0640 C.3   136  LIG136      0.0000
    179 O         -23.5820    7.3140  -67.5960 O.3   137  HOH137      0.0000
    180 N         -21.9540    7.2030  -69.1600 N.3   138  LIG138      0.0000
    181 O         -19.7670    8.0230  -67.5680 O.3   139  HOH139      0.0000
    182 C         -15.7110   10.4190  -65.7530 C.3   140  LIG140      0.0000
    183 C         -16.6580   12.4320  -66.7270 C.3    80  LIG80       0.0000
    184 C         -16.0820   12.1150  -67.9490 C.3    80  LIG80       0.0000
    185 C         -15.3240   10.9640  -68.0890 C.3    80  LIG80       0.0000
    186 H         -23.2870   17.9590  -64.1530 H     141  UNK141      0.0000
    187 C         -17.8000   20.6560  -65.6560 C.3   142  LIG142      0.0000
    188 C         -20.4100   20.5880  -65.3780 C.3    82  HOH82      -0.0049
    189 C         -20.8390   20.0170  -66.7260 C.3    82  HOH82      -0.0264
    190 H         -21.0530   20.8190  -67.4610 H      82  HOH82       0.0313
    191 C         -12.3100   19.1140  -63.4280 C.3   143  LIG143      0.0000
    192 O         -17.5160   17.3920  -69.3110 O.3   144  HOH144      0.0000
    193 O         -17.3450   15.2740  -68.7510 O.3   145  HOH145      0.0000
    194 H         -15.1840   17.7570  -78.7490 H     146  UNK146      0.0000
    195 N         -19.6830   16.3990  -76.5980 N.3   147  LIG147      0.0000
    196 H         -11.0950   21.3400  -82.2030 H     148  UNK148      0.0000
    197 O         -12.5610   23.2910  -80.3870 O.3   149  HOH149      0.0000
    198 H         -15.1500   20.5690  -79.1650 H     150  UNK150      0.0000
    199 H         -16.1220   21.4640  -77.9460 H     151  UNK151      0.0000
    200 N         -16.5190   22.7780  -74.5910 N.3   152  LIG152     -0.1629
    201 H         -16.7830   22.4810  -75.5070 H      85  LIG85       0.1629
    202 H         -17.2330   15.8360  -72.1830 H     153  UNK153      0.0000
    203 C         -19.2530   15.5510  -72.5910 C.3   154  LIG154      0.0000
    204 C         -19.7070   11.6630  -72.3520 C.3   155  LIG155      0.0000
    205 C         -21.8910   17.6080  -69.5540 C.2    88  UNK88       0.3411
    206 O         -23.1070   17.6320  -69.3550 O.2    88  UNK88      -0.2615
    207 N         -21.2040   18.6610  -69.9960 N.am   88  UNK88      -0.0796
    208 C         -20.2080   23.5420  -68.3580 C.3   156  LIG156      0.0000
    209 N         -22.4810   19.2000  -72.4870 N.3   157  LIG157      0.0000
    210 H         -22.1340   17.5920  -74.6730 H     158  UNK158      0.0000
    211 C         -24.9140   14.0210  -74.7070 C.3   159  LIG159      0.0000
    212 C         -26.3290   16.4430  -71.3570 C.3   160  LIG160      0.0000
    213 C         -26.8480   17.9670  -69.5150 C.3   161  LIG161      0.0000
    214 O         -31.1210   20.6560  -74.6430 O.3   162  HOH162      0.0000
    215 O         -30.6100   25.4390  -75.0470 O.3   163  HOH163      0.0000
    216 N         -32.9990   23.0110  -74.9950 N.3   164  LIG164      0.0000
    217 C         -36.9050   22.0260  -73.7800 C.3   165  LIG165      0.0000
    218 C         -38.1530   21.0220  -71.7440 C.3   166  LIG166      0.0000
    219 H         -41.3470   18.5610  -72.6430 H     167  UNK167      0.0000
    220 C         -37.3430   26.4650  -73.7250 C.2    97  LIG97       0.2794
    221 O         -38.2380   27.3060  -73.6230 O.2    97  LIG97      -0.2794
    222 C         -35.7740   26.8650  -77.0550 C.3   168  LIG168      0.0000
    223 H         -33.1850   25.8210  -77.1550 H     169  UNK169      0.0000
    224 S         -38.3370   24.5280  -80.6560 S.3   170  LIG170      0.0000
    225 O         -41.9190   24.4050  -77.2570 O.3   171  HOH171      0.0000
    226 C         -42.7300   28.0610  -75.0530 C.3   172  LIG172      0.0000
    227 C         -42.6950   29.4470  -86.5690 C.3   173  LIG173     -0.0309
    228 H         -42.0890   29.2720  -87.4440 H     101  UNK101      0.0309
    229 N         -39.8420   36.9310  -87.3510 N.3   102  UNK102     -0.1297
    230 C         -39.3700   35.7840  -86.5710 C.3   102  UNK102      0.1297
    231 C         -41.2070   35.9220  -84.8360 C.3   103  UNK103      0.0000
    232 C         -42.5610   35.4280  -84.3790 C.3   103  UNK103      0.0000
    233 O         -37.4450   34.4390  -87.0760 O.3   174  HOH174      0.0000
    234 C         -34.8110   36.1010  -89.9250 C.3   175  LIG175      0.0000
    235 C         -34.2650   36.5810  -87.5900 C.3   176  LIG176      0.0000
    236 O         -32.7560   34.7170  -87.7590 O.3   177  HOH177      0.0000
    237 H         -28.7510   35.7390  -88.1000 H     178  UNK178      0.0000
    238 H         -28.9700   37.2800  -89.6650 H     179  UNK179      0.0000
    239 O         -19.7190   34.8550  -86.0610 O.3   180  HOH180     -0.2528
    240 H         -19.1850   34.5240  -86.7940 H       0  HOH0        0.2528
    241 C         -20.6060   34.5960  -82.2230 C.3   181  LIG181      0.0000
    242 O         -18.5920   32.3030  -85.8540 O.3   182  HOH182      0.0000
    243 O         -13.9050   33.7030  -85.9580 O.3   183  HOH183      0.0000
    244 H         -13.3390   34.5600  -88.1630 H     184  UNK184      0.0000
    245 N         -15.9640   36.2760  -88.5700 N.3   185  LIG185     -0.1629
    246 H         -16.7410   35.7740  -88.9390 H     107  LIG107      0.1629
    247 N         -20.7830   37.3900  -64.2210 N.3   186  LIG186      0.0000
    248 N         -21.9910   35.3710  -65.9390 N.3   109  UNK109     -0.1297
    249 C         -21.2330   36.0420  -66.8800 C.3   109  UNK109      0.1297
    250 C         -25.3410   33.2350  -62.7640 C.3   187  LIG187      0.0000
@<TRIPOS>BOND
     1    21    19    1
     2    19    20    1
     3   130   129    1
     4    14    13    1
     5    25    23   am
     6    25    26    1
     7   246   245    1
     8    23    24    2
     9    28    27    1
    10    27    29    1
    11   228   227    1
    12   229   230    1
    13   240   239    1
    14   231   232    1
    15   141   140    2
    16   112   113    2
    17    37    40    1
    18   113   114    1
    19     9     7    1
    20   168   167    1
    21   110   111    1
    22    50    51    1
    23   201   200    1
    24   220   221    2
    25    91    90    2
    26    90    92   am
    27    58    59    1
    28   207   205   am
    29   205   206    2
    30    78    79    1
    31   185   184    1
    32   184   183    1
    33   190   189    1
    34   249   248    1
    35   161   160    1
    36   189   188    1
    37   155   154    2
    38   157   156    1
    39   149   148    1
    40   174   173    1
    41    68    67    1
    42    66    67    1
