@<TRIPOS>MOLECULE
/mnt/data/users/dm4/vol12/vrzesch/kit/rockingAD/RECEPTORs/3NTB_ed_autopsf_wh0_ed_D/3NTB_ed_autopsf_wh0_ed_lig_D_mop.pdb
 31 32 0 0 0
SMALL
GASTEIGER

@<TRIPOS>ATOM
      1  CAE      -24.2730   23.1640  -75.0550 C.ar  556  T1N556     -0.0477
      2  CAF      -28.2220   21.3790  -77.6950 C.ar  556  T1N556     -0.0572
      3  CAG      -24.3820   22.4380  -76.2120 C.ar  556  T1N556     -0.0530
      4  CAH      -28.1160   22.0850  -76.5240 C.ar  556  T1N556     -0.0537
      5  CAI      -26.7000   23.2180  -74.8050 C.ar  556  T1N556     -0.0406
      6  CAJ      -25.8050   21.3390  -77.9450 C.ar  556  T1N556     -0.0501
      7  CAM      -25.4530   23.5600  -74.3550 C.ar  556  T1N556      0.0082
      8  CAN      -27.0510   21.0060  -78.4250 C.ar  556  T1N556     -0.0334
      9  CAO      -26.8330   22.4620  -76.0140 C.ar  556  T1N556     -0.0168
     10  CAP      -25.6690   22.0740  -76.7270 C.ar  556  T1N556     -0.0175
     11  CAA      -26.7070   25.2420  -72.4420 C.3   556  T1N556     -0.0135
     12  CAB      -27.9130   21.1190  -80.7850 C.3   556  T1N556     -0.0482
     13  OAC      -29.2410   19.1050  -79.2740 O.3   556  T1N556     -0.4802
     14  OAD      -27.4360   17.8290  -79.6000 O.2   556  T1N556     -0.2503
     15  SAK      -25.1370   24.4750  -72.8890 S.3   556  T1N556     -0.1286
     16  CAL      -27.8980   18.9430  -79.5400 C.2   556  T1N556      0.3119
     17  CAQ      -27.1870   20.2710  -79.7400 C.3   556  T1N556      0.0784
     18  HAA      -27.4390   24.5100  -72.0840 H     556  T1N556      0.0344
     19 HAAA      -26.5010   25.9480  -71.6230 H     556  T1N556      0.0344
     20 HAAB      -27.1420   25.8090  -73.2720 H     556  T1N556      0.0344
     21  HAB      -28.9740   21.2580  -80.5290 H     556  T1N556      0.0241
     22 HABA      -27.4620   22.1180  -80.8600 H     556  T1N556      0.0241
     23 HABB      -27.8690   20.6600  -81.7800 H     556  T1N556      0.0241
     24 HOAC      -29.7050   18.2360  -79.1360 H     556  T1N556      0.2951
     25  HAE      -23.2930   23.4470  -74.6650 H     556  T1N556      0.0629
     26  HAF      -29.1980   21.0810  -78.0880 H     556  T1N556      0.0621
     27  HAG      -23.4930   22.1260  -76.7590 H     556  T1N556      0.0624
     28  HAH      -29.0050   22.3670  -75.9630 H     556  T1N556      0.0624
     29  HAI      -27.6070   23.4990  -74.2730 H     556  T1N556      0.0635
     30  HAJ      -24.9000   21.0520  -78.4800 H     556  T1N556      0.0627
     31  HAQ      -26.1620   20.0170  -80.1350 H     556  T1N556      0.0459
@<TRIPOS>BOND
     1     1     3   ar
     2     1     7   ar
     3     1    25    1
     4     2     4   ar
     5     2     8   ar
     6     2    26    1
     7     3    10   ar
     8     3    27    1
     9     4     9   ar
    10     4    28    1
    11     5     7   ar
    12     5     9   ar
    13     5    29    1
    14     6     8   ar
    15     6    10   ar
    16     6    30    1
    17     7    15    1
    18     8    17    1
    19     9    10   ar
    20    11    15    1
    21    11    18    1
    22    11    19    1
    23    11    20    1
    24    12    17    1
    25    12    21    1
    26    12    22    1
    27    12    23    1
    28    13    16    1
    29    13    24    1
    30    14    16    2
    31    16    17    1
    32    17    31    1
