@<TRIPOS>MOLECULE
not_10442445
 23 26 0 0 0
SMALL
GASTEIGER

@<TRIPOS>ATOM
      1 C         -28.3840   13.8630  -81.2090 C.3     1  LIG11      -0.1220
      2 C         -27.1990   13.6320  -80.2040 C.2     1  LIG11       0.5890
      3 C         -29.7950   13.8510  -80.6210 C.2     1  LIG11       0.6050
      4 C         -28.1840   15.2590  -81.8950 C.1     1  LIG11       0.1070
      5 O         -30.0010   13.1880  -79.3610 O.3     1  LIG11      -0.3750
      6 C         -27.5790   12.9700  -78.9640 C.ar    1  LIG11      -0.4160
      7 C         -28.9790   12.7550  -78.5990 C.ar    1  LIG11       0.4880
      8 O         -30.8080   14.2800  -81.0720 O.2     1  LIG11      -0.3200
      9 C         -28.0460   15.2050  -83.3060 C.1     1  LIG11      -0.0450
     10 O         -26.0860   13.9690  -80.5010 O.2     1  LIG11      -0.3860
     11 C         -26.7210   12.4720  -77.9940 C.ar    1  LIG11       0.1840
     12 C         -29.1880   12.1020  -77.3890 C.ar    1  LIG11      -0.3130
     13 C         -27.9390   14.8330  -84.4720 C.2     1  LIG11       0.0020
     14 C         -28.3270   12.8050  -82.2040 C.3     1  LIG11      -0.1730
     15 C         -26.9620   11.8760  -76.8980 C.ar    1  LIG11      -0.1640
     16 C         -28.2720   11.7010  -76.6080 C.ar    1  LIG11       0.2520
     17 C         -28.2360   12.1730  -83.2490 C.2     1  LIG11       0.1020
     18 C         -27.9460   13.6000  -85.0850 C.3     1  LIG11       0.0510
     19 C         -28.0680   12.4720  -84.5830 C.2     1  LIG11      -0.0480
     20 C         -28.1400   16.3570  -81.1730 C.1     1  LIG11      -0.0510
     21 C         -28.1170   17.4510  -80.5090 C.2     1  LIG11      -0.1240
     22 O         -27.1060   17.9970  -79.5690 O.2     1  LIG11      -0.2540
     23 C         -28.1770   18.7470  -79.7830 C.3     1  LIG11       0.4120
@<TRIPOS>BOND
     1    18    19    1
     2    18    13    1
     3    19    17    2
     4    13     9    2
     5     9     4    2
     6    17    14    1
     7    14     1    1
     8     4     1    1
     9     4    20    2
    10     1     3    1
    11     1     2    1
    12    20    21    2
    13     8     3    2
    14     3     5    1
    15    21    23    1
    16    21    22    1
    17    10     2    2
    18     2     6    1
    19    23    22    1
    20     5     7    1
    21     6     7   ar
    22     6    11   ar
    23     7    12   ar
    24    11    15   ar
    25    12    16   ar
    26    15    16   ar
@<TRIPOS>MOLECULE
not_10442740
 23 25 0 0 0
SMALL
GASTEIGER

@<TRIPOS>ATOM
      1 S         -28.9680   13.8190  -80.1960 S.O2    1  LIG11       2.4500
      2 N         -29.0580   12.4540  -79.0350 N.3     1  LIG11      -0.5840
      3 C         -28.7230   11.1520  -79.3960 C.3     1  LIG11      -0.1810
      4 C         -28.2780   10.6970  -80.7210 C.2     1  LIG11       0.4790
      5 C         -28.6220   13.0520  -81.7160 C.ar    1  LIG11      -0.5030
      6 C         -28.3190   11.6540  -81.8630 C.ar    1  LIG11      -0.0550
      7 O         -27.8360   14.5870  -79.7910 O.2     1  LIG11      -0.8340
      8 O         -30.2880   14.3580  -80.2330 O.2     1  LIG11      -0.8350
      9 O         -27.8970    9.5510  -80.8760 O.2     1  LIG11      -0.3800
     10 C         -29.4310   12.7730  -77.7690 C.3     1  LIG11       0.1820
     11 C         -28.0640   11.2400  -83.1600 C.ar    1  LIG11       0.0370
     12 C         -28.6190   13.8080  -82.8630 C.ar    1  LIG11       0.0880
     13 C         -28.0810   12.0340  -84.2320 C.ar    1  LIG11       0.0340
     14 C         -28.3610   13.3310  -84.0850 C.ar    1  LIG11       0.0100
     15 C         -28.8150   10.0730  -78.3370 C.2     1  LIG11       0.6490
     16 N         -30.0200    9.3380  -78.4700 N.am    1  LIG11      -0.4490
     17 C         -31.0480    9.1430  -77.7740 C.ar    1  LIG11       0.4300
     18 N         -32.1680    8.2940  -78.0920 N.ar    1  LIG11      -0.3410
     19 S         -31.4390    9.9720  -76.1310 S.2     1  LIG11      -0.0080
     20 C         -33.0400    8.3690  -77.1750 C.ar    1  LIG11       0.3590
     21 C         -33.0140    9.1340  -75.9820 C.ar    1  LIG11      -0.7220
     22 C         -33.8020    9.3060  -74.9440 C.3     1  LIG11       0.5680
     23 O         -27.9430    9.8030  -77.5570 O.2     1  LIG11      -0.3930
@<TRIPOS>BOND
     1    13    14   ar
     2    13    11   ar
     3    14    12   ar
     4    11     6   ar
     5    12     5   ar
     6     6     5   ar
     7     6     4    1
     8     5     1    1
     9     9     4    2
    10     4     3    1
    11     8     1    2
    12     1     7    2
    13     1     2    1
    14     3     2    1
    15     3    15    1
    16     2    10    1
    17    16    15   am
    18    16    17    1
    19    15    23    2
    20    18    17   ar
    21    18    20   ar
    22    17    19   ar
    23    20    21   ar
    24    19    21   ar
    25    21    22    1
@<TRIPOS>MOLECULE
not_10610
 59 59 0 0 0
SMALL
GASTEIGER

@<TRIPOS>ATOM
      1 C         -27.7260   11.7100  -79.3170 C.3     1  LIG11      -0.1680
      2 C         -27.7540   10.2260  -78.8680 C.3     1  LIG11      -0.1590
      3 C         -26.8040   12.4210  -78.2840 C.3     1  LIG11       0.2070
      4 C         -26.4490   10.0040  -78.0510 C.3     1  LIG11       0.1980
      5 C         -25.7490   11.3650  -77.9000 C.3     1  LIG11      -0.4670
      6 H         -27.2390   11.7820  -80.3190 H       1  LIG11       0.1410
      7 H         -28.6140   10.0690  -78.1580 H       1  LIG11       0.1780
      8 H         -26.3750   13.3700  -78.6610 H       1  LIG11       0.1310
      9 H         -25.7850    9.2290  -78.4780 H       1  LIG11       0.1110
     10 H         -24.8600   11.4350  -78.5470 H       1  LIG11       0.1640
     11 H         -25.3930   11.5310  -76.8680 H       1  LIG11       0.1790
     12 C         -27.9040    9.2500  -79.9970 C.2     1  LIG11      -0.1340
     13 C         -28.0320    9.6400  -81.2670 C.2     1  LIG11      -0.2790
     14 H         -28.0490   10.6950  -81.5550 H       1  LIG11       0.1770
     15 H         -27.8770    8.1960  -79.7150 H       1  LIG11       0.1460
     16 C         -28.1440    8.6900  -82.4320 C.3     1  LIG11       0.1950
     17 H         -27.2820    7.9890  -82.4980 H       1  LIG11       0.1070
     18 O         -29.3370    7.8880  -82.2710 O.3     1  LIG11      -0.5700
     19 H         -29.2180    7.0110  -82.6790 H       1  LIG11       0.3050
     20 C         -28.3650    9.4540  -83.7470 C.3     1  LIG11      -0.3080
     21 H         -28.6030    8.7230  -84.5470 H       1  LIG11       0.1610
     22 H         -29.2500   10.1110  -83.6500 H       1  LIG11       0.1450
     23 C         -27.1270   10.2660  -84.1440 C.3     1  LIG11      -0.2500
     24 H         -26.4250    9.6050  -84.6940 H       1  LIG11       0.1510
     25 H         -26.5830   10.6040  -83.2420 H       1  LIG11       0.1270
     26 C         -27.5100   11.4720  -85.0110 C.3     1  LIG11      -0.2670
     27 H         -27.9230   11.1240  -85.9780 H       1  LIG11       0.1350
     28 H         -28.3240   12.0440  -84.5250 H       1  LIG11       0.1300
     29 C         -26.3060   12.3890  -85.2630 C.3     1  LIG11      -0.2200
     30 H         -26.1600   13.0650  -84.3970 H       1  LIG11       0.1280
     31 H         -26.5080   13.0480  -86.1300 H       1  LIG11       0.1250
     32 C         -25.0300   11.5890  -85.5110 C.3     1  LIG11      -0.4650
     33 H         -24.6100   11.8080  -86.4990 H       1  LIG11       0.1440
     34 H         -24.2590   11.8210  -84.7670 H       1  LIG11       0.1470
     35 H         -25.2150   10.5090  -85.4640 H       1  LIG11       0.1460
     36 O         -26.9300    9.5390  -76.7740 O.3     1  LIG11      -0.5820
     37 H         -26.3310    8.8710  -76.3930 H       1  LIG11       0.3120
     38 C         -29.1250   12.3310  -79.4000 C.3     1  LIG11      -0.2820
     39 H         -29.8870   11.5270  -79.4480 H       1  LIG11       0.1470
     40 H         -29.3390   12.8960  -78.4620 H       1  LIG11       0.1670
     41 C         -29.2730   13.2780  -80.5530 C.2     1  LIG11      -0.1320
     42 H         -30.0730   14.0130  -80.4570 H       1  LIG11       0.1420
     43 C         -28.5190   13.2100  -81.6540 C.2     1  LIG11      -0.1870
     44 H         -27.7260   12.4700  -81.7680 H       1  LIG11       0.1450
     45 C         -28.7120   14.1120  -82.8380 C.3     1  LIG11      -0.2670
     46 H         -28.8110   13.5260  -83.7750 H       1  LIG11       0.1370
     47 H         -29.6670   14.6660  -82.7340 H       1  LIG11       0.1390
     48 C         -27.5350   15.0920  -82.9500 C.3     1  LIG11      -0.2080
     49 H         -27.2080   15.1720  -84.0080 H       1  LIG11       0.1520
     50 H         -26.6530   14.6980  -82.4030 H       1  LIG11       0.1520
     51 C         -27.9040   16.4800  -82.4120 C.3     1  LIG11      -0.4520
     52 H         -27.3820   17.2620  -83.0010 H       1  LIG11       0.1770
     53 H         -28.9910   16.6650  -82.5520 H       1  LIG11       0.1830
     54 C         -27.5650   16.6010  -80.9490 C.2     1  LIG11       0.6510
     55 O         -28.1540   17.1860  -80.0820 O.2     1  LIG11      -0.4360
     56 O         -26.4010   15.9550  -80.5600 O.3     1  LIG11      -0.5400
     57 H         -26.3580   15.6720  -79.6250 H       1  LIG11       0.3240
     58 O         -27.5190   12.8410  -77.1230 O.3     1  LIG11      -0.5570
     59 H         -28.4510   12.5190  -77.1560 H       1  LIG11       0.3240
@<TRIPOS>BOND
     1    33    32    1
     2    31    29    1
     3    27    26    1
     4    32    35    1
     5    32    29    1
     6    32    34    1
     7    29    26    1
     8    29    30    1
     9    26    28    1
    10    26    23    1
    11    24    23    1
    12    21    20    1
    13    23    20    1
    14    23    25    1
    15    49    48    1
    16    46    45    1
    17    20    22    1
    18    20    16    1
    19    52    51    1
    20    48    45    1
    21    48    51    1
    22    48    50    1
    23    45    47    1
    24    45    43    1
    25    19    18    1
    26    53    51    1
    27    17    16    1
    28    16    18    1
    29    16    13    1
    30    51    54    1
    31    44    43    1
    32    43    41    2
    33    14    13    1
    34    13    12    2
    35    54    56    1
    36    54    55    2
    37    56    57    1
    38    41    42    1
    39    41    38    1
    40     6     1    1
    41    12    15    1
    42    12     2    1
    43    39    38    1
    44    38     1    1
    45    38    40    1
    46     1     2    1
    47     1     3    1
    48     2     7    1
    49     2     4    1
    50     8     3    1
    51    10     5    1
    52     9     4    1
    53     3     5    1
    54     3    58    1
    55     4     5    1
    56     4    36    1
    57     5    11    1
    58    59    58    1
    59    36    37    1
@<TRIPOS>MOLECULE
not_110209
 39 41 0 0 0
SMALL
GASTEIGER

@<TRIPOS>ATOM
      1 CL        -27.8670    8.3270  -84.1700 Cl      1  LIG11      -0.0480
      2 N         -28.2160   12.2280  -83.5430 N.ar    1  LIG11      -0.3070
      3 C         -28.2640   11.1420  -81.3670 C.ar    1  LIG11      -0.1450
      4 C         -28.2920   12.3050  -82.1800 C.ar    1  LIG11       0.2070
      5 C         -28.1250    9.8900  -81.9840 C.ar    1  LIG11      -0.0870
      6 C         -28.0370    9.8330  -83.3750 C.ar    1  LIG11      -0.0860
      7 C         -28.0930   11.0180  -84.1320 C.ar    1  LIG11       0.0240
      8 H         -28.0920    8.9760  -81.3870 H       1  LIG11       0.1760
      9 H         -28.0350   11.0020  -85.2290 H       1  LIG11       0.1870
     10 C         -28.4010   11.2040  -79.8960 C.ar    1  LIG11       0.1390
     11 C         -29.6310   10.8920  -79.2920 C.ar    1  LIG11      -0.2710
     12 H         -30.4810   10.5920  -79.9040 H       1  LIG11       0.1710
     13 C         -29.7550   10.9510  -77.9030 C.ar    1  LIG11       0.0410
     14 H         -30.7050   10.6790  -77.4300 H       1  LIG11       0.1600
     15 C         -28.6660   11.3370  -77.1160 C.ar    1  LIG11      -0.6160
     16 C         -27.4390   11.6340  -77.7150 C.ar    1  LIG11       0.0420
     17 C         -27.3030   11.5760  -79.1030 C.ar    1  LIG11      -0.2530
     18 H         -26.5720   11.8970  -77.0960 H       1  LIG11       0.1580
     19 H         -26.3460   11.8030  -79.5720 H       1  LIG11       0.1730
     20 S         -28.8240   11.3920  -75.3830 S.O2    1  LIG11       2.4840
     21 O         -27.6800   10.7140  -74.7990 O.2     1  LIG11      -0.9440
     22 O         -29.1310   12.7570  -74.9940 O.2     1  LIG11      -0.9440
     23 C         -30.2460   10.4120  -75.0660 C.3     1  LIG11      -0.9760
     24 H         -30.2460   10.0110  -74.0410 H       1  LIG11       0.2310
     25 H         -30.3470    9.5390  -75.7180 H       1  LIG11       0.2170
     26 H         -31.1810   10.9820  -75.1540 H       1  LIG11       0.2260
     27 C         -28.4010   13.6670  -81.6270 C.ar    1  LIG11      -0.1900
     28 C         -27.3950   14.6310  -81.8490 C.ar    1  LIG11       0.0760
     29 H         -26.5010   14.4000  -82.4440 H       1  LIG11       0.1720
     30 N         -27.4660   15.8900  -81.3570 N.ar    1  LIG11      -0.3610
     31 C         -28.5590   16.2480  -80.6200 C.ar    1  LIG11       0.2990
     32 C         -29.6170   15.3450  -80.3790 C.ar    1  LIG11      -0.3440
     33 C         -29.5370   14.0530  -80.8930 C.ar    1  LIG11       0.0150
     34 H         -30.4880   15.6590  -79.8080 H       1  LIG11       0.1780
     35 H         -30.3520   13.3430  -80.7330 H       1  LIG11       0.1610
     36 C         -28.5900   17.6430  -80.0980 C.3     1  LIG11      -0.5100
     37 H         -29.6300   17.9940  -79.9910 H       1  LIG11       0.1840
     38 H         -28.1010   18.3490  -80.7940 H       1  LIG11       0.1930
     39 H         -28.0990   17.7430  -79.1230 H       1  LIG11       0.1690
@<TRIPOS>BOND
     1     9     7    1
     2     1     6    1
     3     7     2   ar
     4     7     6   ar
     5     2     4   ar
     6     6     5   ar
     7    29    28    1
     8     4    27    1
     9     4     3   ar
    10     5     8    1
    11     5     3   ar
    12    28    27   ar
    13    28    30   ar
    14    27    33   ar
    15     3    10    1
    16    30    31   ar
    17    33    35    1
    18    33    32   ar
    19    38    36    1
    20    31    32   ar
    21    31    36    1
    22    32    34    1
    23    36    37    1
    24    36    39    1
    25    12    11    1
    26    10    11   ar
    27    10    17   ar
    28    19    17    1
    29    11    13   ar
    30    17    16   ar
    31    13    14    1
    32    13    15   ar
    33    16    15   ar
    34    16    18    1
    35    15    20    1
    36    25    23    1
    37    20    23    1
    38    20    22    2
    39    20    21    2
    40    26    23    1
    41    23    24    1
@<TRIPOS>MOLECULE
not_111188
 37 36 0 0 0
SMALL
GASTEIGER

@<TRIPOS>ATOM
      1 OE1       -25.7260   13.6080  -78.6860 O.2     1  GLN11      -0.5270
      2 N         -26.4400   11.8350  -77.5130 N.am    1  GLN11      -0.5240
      3 CD        -26.5500   12.7140  -78.6130 C.2     1  GLN11       0.6280
      4 H         -25.5840   11.9060  -76.9580 H       1  GLN11       0.2850
      5 CA        -27.2650   10.6390  -77.3040 C.3     1  GLN11      -0.0260
      6 HA        -28.2680   10.7570  -77.8320 H       1  GLN11       0.2090
      7 C         -27.6280   10.6230  -75.7970 C.2     1  GLN11       0.5460
      8 O         -27.1430    9.7910  -75.0430 O.2     1  GLN11      -0.5590
      9 N         -28.4700   11.6280  -75.3170 N.am    2  GLY22      -0.4490
     10 H         -29.0580   12.1790  -75.9450 H       2  GLY22       0.2880
     11 CA        -28.9260   11.5750  -73.9140 C.3     2  GLY22      -0.2870
     12 HA2       -29.9350   11.0830  -73.8630 H       2  GLY22       0.2080
     13 HA1       -28.2310   10.9230  -73.3290 H       2  GLY22       0.1890
     14 C         -28.9460   12.9690  -73.3090 C.2     2  GLY22       0.6140
     15 OXT       -29.6830   13.8710  -73.6110 O.2     2  GLY22      -0.4310
     16 O         -27.9970   13.2200  -72.3480 O.3     2  GLY22      -0.5030
     17 H         -27.4350   14.0140  -72.4910 H       2  GLY22       0.3310
     18 CB        -26.6170    9.3530  -77.8050 C.3     1  GLN11      -0.3460
     19 HB2       -26.4990    8.6160  -76.9850 H       1  GLN11       0.1800
     20 HB1       -25.6100    9.5100  -78.2360 H       1  GLN11       0.1750
     21 SG        -27.6470    8.6500  -79.1290 S.3     1  GLN11      -0.2310
     22 HG        -27.0310    9.2080  -80.2050 H       1  GLN11       0.2270
     23 CG        -27.6590   12.5190  -79.6210 C.3     1  GLN11      -0.4130
     24 HG1       -27.1930   12.4680  -80.6310 H       1  GLN11       0.1850
     25 HG2       -28.1170   11.5110  -79.4660 H       1  GLN11       0.2050
     26 CB        -28.7160   13.6220  -79.5830 C.3     1  GLN11      -0.2820
     27 HB1       -28.5800   14.2260  -78.6600 H       1  GLN11       0.1550
     28 HB2       -29.7440   13.1940  -79.4910 H       1  GLN11       0.1840
     29 CA        -28.6450   14.5440  -80.8130 C.3     1  GLN11      -0.1210
     30 HA        -29.6870   14.8580  -81.1050 H       1  GLN11       0.1740
     31 N         -27.9810   13.9140  -81.9860 N.3     1  GLN11      -0.5410
     32 H2        -27.0120   13.6750  -81.7750 H       1  GLN11       0.2340
     33 H1        -28.4540   13.0540  -82.2560 H       1  GLN11       0.2300
     34 C         -27.8710   15.8440  -80.5230 C.2     1  GLN11       0.6440
     35 OXT       -28.3700   16.9130  -80.2370 O.2     1  GLN11      -0.5340
     36 O         -26.5190   15.8090  -80.6450 O.3     1  GLN11      -0.4840
     37 H         -26.1740   15.0360  -81.1990 H       1  GLN11       0.3650
@<TRIPOS>BOND
     1    33    31    1
     2    31    32    1
     3    31    29    1
     4    37    36    1
     5    30    29    1
     6    29    34    1
     7    29    26    1
     8    36    34    1
     9    24    23    1
    10    34    35    2
    11    22    21    1
    12    23    26    1
    13    23    25    1
    14    23     3    1
    15    26    28    1
    16    26    27    1
    17    21    18    1
    18     1     3    2
    19     3     2   am
    20    20    18    1
    21     6     5    1
    22    18     5    1
    23    18    19    1
    24     2     5    1
    25     2     4    1
    26     5     7    1
    27    10     9    1
    28     7     9   am
    29     7     8    2
    30     9    11    1
    31    11    12    1
    32    11    13    1
    33    11    14    1
    34    15    14    2
    35    14    16    1
    36    17    16    1
@<TRIPOS>MOLECULE
not_1116
 27 28 0 0 0
SMALL
GASTEIGER

@<TRIPOS>ATOM
      1 NE1       -27.5940   24.3580  -75.7660 N.4     1  TRP11      -0.2500
      2 CG        -26.0670   22.6610  -75.8500 C.3     1  TRP11      -0.1080
      3 CD2       -25.9010   23.3520  -74.5920 C.3     1  TRP11      -0.1120
      4 CE2       -26.8730   24.4070  -74.5610 C.3     1  TRP11       0.0960
      5 CD1       -27.1020   23.2860  -76.5340 C.3     1  TRP11      -0.0990
      6 CE3       -25.0350   23.1880  -73.4910 C.3     1  TRP11      -0.0920
      7 CZ2       -26.9880   25.2880  -73.4640 C.3     1  TRP11      -0.2340
      8 CZ3       -25.1500   24.0540  -72.4210 C.3     1  TRP11      -0.1970
      9 CH2       -26.1200   25.0940  -72.4080 C.3     1  TRP11      -0.0790
     10 HD1       -27.5140   23.0470  -77.5000 H       1  TRP11       0.1700
     11 HE1       -28.3630   24.9490  -76.0150 H       1  TRP11       0.2700
     12 HE3       -24.2920   22.3930  -73.4990 H       1  TRP11       0.1530
     13 HZ2       -27.7300   26.0790  -73.4580 H       1  TRP11       0.1590
     14 HZ3       -24.4910   23.9490  -71.5600 H       1  TRP11       0.1540
     15 HH2       -26.1680   25.7480  -71.5370 H       1  TRP11       0.1440
     16 CB        -25.2960   21.4820  -76.3140 C.3     1  TRP11      -0.2620
     17 HB2       -25.9790   20.6020  -76.4040 H       1  TRP11       0.1800
     18 HB1       -24.5420   21.1800  -75.5570 H       1  TRP11       0.1580
     19 CA        -24.6260   21.7240  -77.6860 C.3     1  TRP11      -0.1010
     20 HA        -25.0330   22.6690  -78.1420 H       1  TRP11       0.1720
     21 N         -24.9580   20.6100  -78.6040 N.3     1  TRP11      -0.4990
     22 H2        -25.3530   20.9580  -79.4760 H       1  TRP11       0.2220
     23 H1        -25.6610   19.9980  -78.1890 H       1  TRP11       0.2240
     24 C         -23.1040   21.8850  -77.5200 C.2     1  TRP11       0.5660
     25 O         -22.2710   21.1660  -78.0160 O.2     1  TRP11      -0.4680
     26 OXT       -22.6510   22.9500  -76.7870 O.3     1  TRP11      -0.5140
     27 HXT       -22.8620   23.8470  -77.1620 H       1  TRP11       0.3470
@<TRIPOS>BOND
     1    22    21    1
     2    21    23    1
     3    21    19    1
     4    20    19    1
     5    25    24    2
     6    19    24    1
     7    19    16    1
     8    24    26    1
     9    10     5    1
    10    27    26    1
    11     5     2    1
    12     5     1    1
    13    17    16    1
    14    16     2    1
    15    16    18    1
    16    11     1    1
    17     2     3    1
    18     1     4    1
    19     3     4    1
    20     3     6    1
    21     4     7    1
    22    12     6    1
    23     6     8    1
    24     7    13    1
    25     7     9    1
    26     8     9    1
    27     8    14    1
    28     9    15    1
@<TRIPOS>MOLECULE
not_112728
 55 57 0 0 0
SMALL
GASTEIGER

@<TRIPOS>ATOM
      1 C         -20.8260   28.1220  -86.5200 C.ar    1  LIG11       0.3190
      2 C         -18.8530   26.9440  -84.8850 C.ar    1  LIG11      -0.3300
      3 C         -19.7260   28.8860  -86.0400 C.ar    1  LIG11      -0.3590
      4 C         -20.9070   26.7520  -86.1580 C.ar    1  LIG11      -0.3740
      5 C         -18.7630   28.3010  -85.2320 C.ar    1  LIG11       0.0440
      6 C         -19.9280   26.1760  -85.3580 C.ar    1  LIG11       0.0600
      7 H         -19.6410   29.9410  -86.3000 H       1  LIG11       0.1720
      8 H         -21.7380   26.1360  -86.4950 H       1  LIG11       0.1710
      9 H         -17.9240   28.8990  -84.8710 H       1  LIG11       0.1370
     10 H         -19.9940   25.1160  -85.1020 H       1  LIG11       0.1450
     11 N         -21.8580   28.7490  -87.2460 N.pl3   1  LIG11      -0.2830
     12 C         -22.9580   29.3970  -86.4640 C.3     1  LIG11      -0.1050
     13 H         -22.7760   29.1800  -85.3780 H       1  LIG11       0.1730
     14 H         -23.9510   28.9610  -86.7220 H       1  LIG11       0.1380
     15 C         -22.9890   30.8920  -86.6660 C.ar    1  LIG11      -0.0330
     16 N         -23.7930   31.4020  -87.5940 N.ar    1  LIG11      -0.1540
     17 C         -23.7960   32.7680  -87.7450 C.ar    1  LIG11      -0.3340
     18 C         -24.6600   33.4090  -88.7320 C.ar    1  LIG11       0.4890
     19 C         -22.9680   33.6400  -86.9430 C.ar    1  LIG11       0.3810
     20 N         -24.6830   34.7660  -88.8670 N.ar    1  LIG11      -0.6050
     21 C         -23.8450   35.5070  -88.0300 C.ar    1  LIG11       0.5320
     22 N         -22.9830   34.9960  -87.0740 N.ar    1  LIG11      -0.5110
     23 N         -22.1120   33.0650  -85.9850 N.ar    1  LIG11      -0.2780
     24 C         -22.1300   31.7490  -85.8630 C.ar    1  LIG11       0.0130
     25 H         -21.4570   31.3030  -85.1170 H       1  LIG11       0.1820
     26 N         -25.4720   32.6780  -89.5540 N.pl3   1  LIG11      -0.4360
     27 H         -26.2360   32.1380  -89.1760 H       1  LIG11       0.2840
     28 H         -25.2900   32.6290  -90.5470 H       1  LIG11       0.2930
     29 N         -23.8880   36.8710  -88.1670 N.pl3   1  LIG11      -0.4470
     30 H         -23.7100   37.3040  -89.0600 H       1  LIG11       0.2860
     31 H         -24.0640   37.4570  -87.3630 H       1  LIG11       0.2900
     32 C         -22.2960   28.1250  -88.5210 C.3     1  LIG11      -0.3100
     33 H         -22.8230   27.1690  -88.3740 H       1  LIG11       0.1420
     34 H         -22.9590   28.8210  -89.0650 H       1  LIG11       0.1680
     35 H         -21.4290   27.9430  -89.1840 H       1  LIG11       0.1620
     36 C         -17.7860   26.3110  -84.0740 C.2     0  UNK0        0.6350
     37 O         -17.4070   26.6890  -82.9700 O.2     0  UNK0       -0.5760
     38 N         -17.2020   25.1770  -84.6490 N.am    1  GLU1       -0.5150
     39 H         -17.3800   24.9170  -85.6180 H       1  GLU1        0.2920
     40 CA        -16.2030   24.3750  -83.9090 C.3     1  GLU1       -0.0760
     41 HA        -16.3770   24.5110  -82.8030 H       1  GLU1        0.1730
     42 C         -14.7750   24.8940  -84.2190 C.2     1  GLU1        0.5980
     43 OXT       -13.7730   24.2250  -84.2200 O.2     1  GLU1       -0.4520
     44 O         -14.6650   26.2260  -84.4590 O.3     1  GLU1       -0.5180
     45 H         -13.7730   26.5330  -84.8520 H       1  GLU1        0.3730
     46 CB        -16.3090   22.8910  -84.2850 C.3     1  GLU1       -0.2510
     47 HB1       -17.1940   22.7110  -84.9400 H       1  GLU1        0.1820
     48 HB2       -15.4470   22.6100  -84.9310 H       1  GLU1        0.1760
     49 CG        -16.3620   21.9890  -83.0490 C.3     1  GLU1       -0.4430
     50 HG1       -17.2860   21.3680  -83.0590 H       1  GLU1        0.1900
     51 HG2       -16.4280   22.6070  -82.1300 H       1  GLU1        0.1780
     52 CD        -15.1680   21.0680  -82.9980 C.2     1  GLU1        0.6470
     53 OE1       -15.1220   19.8910  -83.2310 O.2     1  GLU1       -0.4310
     54 OE2       -13.9820   21.6610  -82.6040 O.3     1  GLU1       -0.5280
     55 HE2       -13.1920   21.0820  -82.5960 H       1  GLU1        0.3270
@<TRIPOS>BOND
     1    28    26    1
     2    26    27    1
     3    26    18    1
     4    35    32    1
     5    34    32    1
     6    30    29    1
     7    20    18   ar
     8    20    21   ar
     9    18    17   ar
    10    32    33    1
    11    32    11    1
    12    29    21    1
    13    29    31    1
    14    21    22   ar
    15    17    16   ar
    16    17    19   ar
    17    16    15   ar
    18    11     1    1
    19    11    12    1
    20    22    19   ar
    21    19    23   ar
    22    14    12    1
    23    15    12    1
    24    15    24   ar
    25     1     4   ar
    26     1     3   ar
    27     8     4    1
    28    12    13    1
    29     7     3    1
    30     4     6   ar
    31     3     5   ar
    32    23    24   ar
    33    24    25    1
    34    39    38    1
    35     6    10    1
    36     6     2   ar
    37     5     2   ar
    38     5     9    1
    39    47    46    1
    40    48    46    1
    41     2    36    1
    42    45    44    1
    43    38    36   am
    44    38    40    1
    45    44    42    1
    46    46    40    1
    47    46    49    1
    48    43    42    2
    49    42    40    1
    50    36    37    2
    51    40    41    1
    52    53    52    2
    53    50    49    1
    54    49    52    1
    55    49    51    1
    56    52    54    1
    57    54    55    1
@<TRIPOS>MOLECULE
not_120261
 10 9 0 0 0
SMALL
GASTEIGER

@<TRIPOS>ATOM
      1 O         -36.3580   16.9420  -63.9080 O.3     1  LIG11      -0.2160
      2 C         -36.6800   18.2260  -64.4680 C.3     1  LIG11      -0.2280
      3 H         -37.3110   18.1100  -65.3540 H       1  LIG11       0.1430
      4 H         -35.6890   18.6160  -64.7330 H       1  LIG11       0.1570
      5 H         -37.1700   18.8580  -63.7210 H       1  LIG11       0.1430
      6 O         -35.7350   16.2340  -65.0080 O.3     1  LIG11      -0.2160
      7 C         -35.0300   17.2650  -65.7210 C.3     1  LIG11      -0.2270
      8 H         -33.9910   17.3230  -65.3810 H       1  LIG11       0.1430
      9 H         -35.5920   18.1640  -65.4400 H       1  LIG11       0.1570
     10 H         -35.0780   17.0860  -66.8000 H       1  LIG11       0.1430
@<TRIPOS>BOND
     1    10     7    1
     2     7     9    1
     3     7     8    1
     4     7     6    1
     5     3     2    1
     6     6     1    1
     7     4     2    1
     8     2     1    1
     9     2     5    1
@<TRIPOS>MOLECULE
not_133236
 33 34 0 0 0
SMALL
GASTEIGER

@<TRIPOS>ATOM
      1 C         -28.5630   14.0840  -81.6490 C.ar    1  LIG11       0.1010
      2 C         -28.6150   12.7820  -81.1090 C.ar    1  LIG11       0.0370
      3 C         -28.3010   14.2390  -83.0160 C.ar    1  LIG11      -0.2530
      4 C         -28.0660   13.1270  -83.8380 C.ar    1  LIG11       0.1450
      5 C         -28.3730   11.6660  -81.9260 C.ar    1  LIG11      -0.1500
      6 C         -28.0980   11.8370  -83.2800 C.ar    1  LIG11      -0.2100
      7 H         -28.2840   15.2390  -83.4490 H       1  LIG11       0.1710
      8 H         -28.3990   10.6630  -81.5000 H       1  LIG11       0.1590
      9 H         -27.9100   10.9660  -83.9080 H       1  LIG11       0.1610
     10 N         -28.9670   12.6240  -79.7010 N.pl3   1  LIG11      -0.3920
     11 H         -29.9500   12.3110  -79.6260 H       1  LIG11       0.2660
     12 C         -28.0660   11.8770  -78.8820 C.ar    1  LIG11       0.0810
     13 C         -28.4900   10.7310  -78.1750 C.ar    1  LIG11      -0.0520
     14 CL        -30.0870   10.1230  -78.4060 Cl      1  LIG11      -0.0700
     15 C         -27.6610   10.0560  -77.2770 C.ar    1  LIG11      -0.1400
     16 H         -28.0340    9.1760  -76.7490 H       1  LIG11       0.1720
     17 C         -26.3580   10.5070  -77.0620 C.ar    1  LIG11      -0.1340
     18 C         -25.8890   11.6390  -77.7370 C.ar    1  LIG11      -0.1860
     19 H         -25.7040    9.9800  -76.3680 H       1  LIG11       0.1610
     20 C         -26.7400   12.3040  -78.6180 C.ar    1  LIG11       0.1160
     21 H         -24.8710   11.9970  -77.5750 H       1  LIG11       0.1770
     22 F         -26.2630   13.3890  -79.2280 F       1  LIG11      -0.1300
     23 C         -28.7700   15.3010  -80.7940 C.3     1  LIG11      -0.4640
     24 H         -28.8310   15.0250  -79.7170 H       1  LIG11       0.1980
     25 H         -29.7560   15.7650  -81.0260 H       1  LIG11       0.1990
     26 C         -27.6400   16.2900  -80.9770 C.2     1  LIG11       0.6680
     27 O         -26.4980   16.1660  -80.6160 O.2     1  LIG11      -0.4530
     28 O         -27.9710   17.4710  -81.6020 O.3     1  LIG11      -0.5290
     29 H         -27.3340   18.2150  -81.4470 H       1  LIG11       0.3440
     30 C         -27.7870   13.3240  -85.2910 C.3     1  LIG11      -0.5080
     31 H         -28.6910   13.1480  -85.8960 H       1  LIG11       0.1760
     32 H         -27.0100   12.6490  -85.6740 H       1  LIG11       0.1670
     33 H         -27.4540   14.3510  -85.5010 H       1  LIG11       0.1730
@<TRIPOS>BOND
     1    31    30    1
     2    32    30    1
     3    33    30    1
     4    30     4    1
     5     9     6    1
     6     4     6   ar
     7     4     3   ar
     8     7     3    1
     9     6     5   ar
    10     3     1   ar
    11     5     8    1
    12     5     2   ar
    13     1     2   ar
    14     1    23    1
    15    28    29    1
    16    28    26    1
    17     2    10    1
    18    25    23    1
    19    26    23    1
    20    26    27    2
    21    23    24    1
    22    10    11    1
    23    10    12    1
    24    22    20    1
    25    12    20   ar
    26    12    13   ar
    27    20    18   ar
    28    14    13    1
    29    13    15   ar
    30    18    21    1
    31    18    17   ar
    32    15    17   ar
    33    15    16    1
    34    17    19    1
@<TRIPOS>MOLECULE
not_1512
 10 9 0 0 0
SMALL
GASTEIGER

@<TRIPOS>ATOM
      1 C         -33.9940   28.0530  -72.6890 C.3     1  LIG11      -0.3250
      2 H         -34.2590   29.0800  -73.0090 H       1  LIG11       0.1770
      3 H         -34.4670   27.3650  -73.4160 H       1  LIG11       0.1770
      4 C         -32.4840   27.8690  -72.6830 C.3     1  LIG11       0.0270
      5 H         -32.1690   26.9580  -72.1410 H       1  LIG11       0.1230
      6 H         -31.9490   28.7540  -72.2910 H       1  LIG11       0.1230
      7 O         -32.1590   27.7130  -74.0830 O.3     1  LIG11      -0.5600
      8 H         -32.7450   28.2700  -74.6290 H       1  LIG11       0.3080
      9 S         -34.5580   27.7190  -70.9930 S.3     1  LIG11      -0.2390
     10 H         -35.4520   26.7410  -71.2560 H       1  LIG11       0.1880
@<TRIPOS>BOND
     1     8     7    1
     2     7     4    1
     3     3     1    1
     4     2     1    1
     5     1     4    1
     6     1     9    1
     7     4     6    1
     8     4     5    1
     9    10     9    1
@<TRIPOS>MOLECULE
not_1710
 31 33 0 0 0
SMALL
GASTEIGER

@<TRIPOS>ATOM
      1 O         -26.1850   12.2370  -77.7790 O.2     1  LIG11      -0.4490
      2 O         -30.3770   11.8820  -75.8640 O.2     1  LIG11      -0.4840
      3 N         -29.7340   12.2650  -78.0950 N.am    1  LIG11      -0.5340
      4 N         -28.1130   12.0490  -76.5040 N.am    1  LIG11      -0.5940
      5 C         -28.4500   12.2250  -78.8710 C.3     1  LIG11       0.1160
      6 C         -27.3830   12.1810  -77.7140 C.2     1  LIG11       0.5670
      7 C         -29.5360   12.0250  -76.7160 C.2     1  LIG11       0.6910
      8 H         -30.6100   12.0390  -78.5540 H       1  LIG11       0.2990
      9 H         -27.6930   12.0000  -75.5790 H       1  LIG11       0.3160
     10 C         -28.3280   10.9740  -79.7290 C.ar    1  LIG11      -0.0510
     11 C         -28.2770   11.0940  -81.1270 C.ar    1  LIG11      -0.1500
     12 H         -28.3280   12.0800  -81.6010 H       1  LIG11       0.1790
     13 C         -28.1660    9.9540  -81.9270 C.ar    1  LIG11      -0.1320
     14 H         -28.1180   10.0600  -83.0110 H       1  LIG11       0.1530
     15 C         -28.1160    8.6860  -81.3410 C.ar    1  LIG11      -0.1350
     16 H         -28.0250    7.7990  -81.9650 H       1  LIG11       0.1510
     17 C         -28.1850    8.5610  -79.9500 C.ar    1  LIG11      -0.1360
     18 C         -28.2960    9.6990  -79.1460 C.ar    1  LIG11      -0.1530
     19 H         -28.1510    7.5740  -79.4910 H       1  LIG11       0.1510
     20 H         -28.3620    9.5760  -78.0660 H       1  LIG11       0.1460
     21 C         -28.3110   13.5190  -79.6560 C.ar    1  LIG11      -0.0300
     22 C         -27.0790   13.9180  -80.1900 C.ar    1  LIG11      -0.1380
     23 H         -26.1870   13.3050  -80.0530 H       1  LIG11       0.1610
     24 C         -26.9830   15.1170  -80.9050 C.ar    1  LIG11      -0.1460
     25 H         -26.0230   15.4240  -81.3170 H       1  LIG11       0.1500
     26 C         -28.1110   15.9210  -81.0880 C.ar    1  LIG11      -0.1270
     27 H         -28.0330   16.8570  -81.6390 H       1  LIG11       0.1480
     28 C         -29.3430   15.5210  -80.5610 C.ar    1  LIG11      -0.1430
     29 C         -29.4460   14.3250  -79.8480 C.ar    1  LIG11      -0.1320
     30 H         -30.2250   16.1440  -80.7040 H       1  LIG11       0.1510
     31 H         -30.4120   14.0170  -79.4480 H       1  LIG11       0.1560
@<TRIPOS>BOND
     1    14    13    1
     2    16    15    1
     3    13    15   ar
     4    13    11   ar
     5    27    26    1
     6    12    11    1
     7    15    17   ar
     8    25    24    1
     9    11    10   ar
    10    26    24   ar
    11    26    28   ar
    12    24    22   ar
    13    30    28    1
    14    28    29   ar
    15    22    23    1
    16    22    21   ar
    17    17    19    1
    18    17    18   ar
    19    29    21   ar
    20    29    31    1
    21    10    18   ar
    22    10     5    1
    23    21     5    1
    24    18    20    1
    25     5     3    1
    26     5     6    1
    27     8     3    1
    28     3     7   am
    29     1     6    2
    30     6     4   am
    31     7     4   am
    32     7     2    2
    33     4     9    1
@<TRIPOS>MOLECULE
not_20572534
 55 57 0 0 0
SMALL
GASTEIGER

@<TRIPOS>ATOM
      1 O         -28.1820   14.3590  -84.4920 O.2     1  LIG11      -0.4680
      2 N         -28.0960   12.3920  -83.3440 N.am    1  LIG11      -0.3320
      3 C         -28.2330   10.6780  -81.8090 C.2     1  LIG11      -0.1640
      4 C         -28.7050   11.8910  -81.1590 C.ar    1  LIG11       0.0710
      5 C         -27.8820   10.9860  -83.1090 C.2     1  LIG11       0.1910
      6 C         -28.6170   12.9450  -82.1150 C.ar    1  LIG11      -0.0060
      7 C         -29.1760   12.1400  -79.8650 C.ar    1  LIG11      -0.3600
      8 C         -29.0000   14.2600  -81.8000 C.ar    1  LIG11      -0.0710
      9 C         -27.8910   13.1830  -84.5120 C.2     1  LIG11       0.6080
     10 C         -29.5510   13.4500  -79.5730 C.ar    1  LIG11       0.3250
     11 C         -29.4670   14.5080  -80.5210 C.ar    1  LIG11      -0.2760
     12 H         -29.2410   11.3330  -79.1440 H       1  LIG11       0.1850
     13 H         -28.9310   15.0550  -82.5480 H       1  LIG11       0.1840
     14 H         -29.7820   15.5060  -80.2170 H       1  LIG11       0.1820
     15 C         -28.1850    9.3520  -81.1510 C.3     1  LIG11      -0.3710
     16 H         -29.0550    8.7360  -81.4860 H       1  LIG11       0.2000
     17 H         -27.2890    8.7690  -81.4610 H       1  LIG11       0.1770
     18 C         -28.2210    9.4120  -79.6310 C.2     1  LIG11       0.6100
     19 O         -29.1530    8.9330  -78.9930 O.2     1  LIG11      -0.5920
     20 N         -27.1210    9.9680  -78.9920 N.am    1  LIG11      -0.5130
     21 H         -26.3900   10.4300  -79.5290 H       1  LIG11       0.2820
     22 CA        -27.1080   10.1760  -77.5150 C.3     1  LIG11       0.0380
     23 HA        -28.1650   10.0560  -77.1340 H       1  LIG11       0.1550
     24 C         -26.2540    9.0800  -76.8310 C.3     1  LIG11      -0.0280
     25 H2        -26.4780    8.0700  -77.2160 H       1  LIG11       0.1240
     26 H1        -25.1710    9.2800  -76.9260 H       1  LIG11       0.1460
     27 O         -26.4610    9.1030  -75.4190 O.3     1  LIG11      -0.5650
     28 H         -25.9260    8.3810  -74.9790 H       1  LIG11       0.3410
     29 C         -26.6190   11.5970  -77.1850 C.3     1  LIG11      -0.2830
     30 H         -27.4810   12.2190  -76.8640 H       1  LIG11       0.1480
     31 H         -25.9580   11.5380  -76.2940 H       1  LIG11       0.1520
     32 C         -25.8790   12.2910  -78.3230 C.3     1  LIG11      -0.4510
     33 H         -26.2130   13.3250  -78.4670 H       1  LIG11       0.1430
     34 H         -26.0160   11.7700  -79.2770 H       1  LIG11       0.1520
     35 H         -24.8010   12.3250  -78.1260 H       1  LIG11       0.1510
     36 C         -27.3750   10.0570  -84.1380 C.3     1  LIG11      -0.5040
     37 H         -27.4200   10.4900  -85.1500 H       1  LIG11       0.1840
     38 H         -27.9730    9.1310  -84.1690 H       1  LIG11       0.1780
     39 H         -26.3320    9.7530  -83.9570 H       1  LIG11       0.1810
     40 C         -27.3060   12.5240  -85.7210 C.ar    1  LIG11      -0.1760
     41 C         -28.1470   12.1410  -86.7740 C.ar    1  LIG11      -0.0640
     42 H         -29.2280   12.2790  -86.6940 H       1  LIG11       0.1640
     43 C         -27.5980   11.5890  -87.9340 C.ar    1  LIG11      -0.2000
     44 H         -28.2380   11.2830  -88.7620 H       1  LIG11       0.1800
     45 C         -26.2100   11.4460  -88.0180 C.ar    1  LIG11       0.0900
     46 CL        -25.5270   10.7610  -89.4430 Cl      1  LIG11      -0.0740
     47 C         -25.3570   11.8420  -86.9830 C.ar    1  LIG11      -0.2020
     48 C         -25.9150   12.3900  -85.8250 C.ar    1  LIG11      -0.0680
     49 H         -24.2750   11.7340  -87.0820 H       1  LIG11       0.1790
     50 H         -25.2670   12.7160  -85.0090 H       1  LIG11       0.1610
     51 O         -30.0340   13.8890  -78.3600 O.3     1  LIG11      -0.3720
     52 C         -30.0660   12.9430  -77.2620 C.3     1  LIG11      -0.1890
     53 H         -31.0960   12.7800  -76.9310 H       1  LIG11       0.1420
     54 H         -29.4850   13.4710  -76.4950 H       1  LIG11       0.1610
     55 H         -29.5780   12.0080  -77.5510 H       1  LIG11       0.1420
@<TRIPOS>BOND
     1    46    45    1
     2    44    43    1
     3    45    43   ar
     4    45    47   ar
     5    43    41   ar
     6    49    47    1
     7    47    48   ar
     8    41    42    1
     9    41    40   ar
    10    48    40   ar
    11    48    50    1
    12    40     9    1
    13    37    36    1
    14     9     1    2
    15     9     2   am
    16    38    36    1
    17    36    39    1
    18    36     5    1
    19     2     5    1
    20     2     6    1
    21     5     3    2
    22    13     8    1
    23     6     8   ar
    24     6     4   ar
    25     3     4    1
    26     3    15    1
    27     8    11   ar
    28    16    15    1
    29    17    15    1
    30     4     7   ar
    31    15    18    1
    32    11    14    1
    33    11    10   ar
    34     7    10   ar
    35     7    12    1
    36    18    19    2
    37    18    20   am
    38    10    51    1
    39    21    20    1
    40    34    32    1
    41    20    22    1
    42    33    32    1
    43    51    52    1
    44    32    35    1
    45    32    29    1
    46    55    52    1
    47    22    29    1
    48    22    23    1
    49    22    24    1
    50    52    53    1
    51    52    54    1
    52    25    24    1
    53    29    30    1
    54    29    31    1
    55    26    24    1
    56    24    27    1
    57    27    28    1
@<TRIPOS>MOLECULE
not_216840
 26 26 0 0 0
SMALL
GASTEIGER

@<TRIPOS>ATOM
      1 C         -24.8550   22.7930  -76.2510 C.ar    1  LIG11      -0.0530
      2 C         -25.9430   23.3640  -75.5660 C.ar    1  LIG11      -0.2830
      3 C         -23.6960   22.4370  -75.5620 C.ar    1  LIG11      -0.1380
      4 C         -25.8480   23.5860  -74.1960 C.ar    1  LIG11       0.2060
      5 C         -23.5920   22.6570  -74.1790 C.ar    1  LIG11      -0.2730
      6 C         -24.6590   23.2350  -73.4950 C.ar    1  LIG11       0.2030
      7 H         -26.8460   23.6200  -76.1200 H       1  LIG11       0.1800
      8 H         -22.8600   21.9800  -76.0930 H       1  LIG11       0.1630
      9 H         -22.6810   22.3810  -73.6530 H       1  LIG11       0.1640
     10 C         -24.9430   22.5620  -77.7440 C.3     1  LIG11       0.1700
     11 H         -24.0320   22.0460  -78.1290 H       1  LIG11       0.1340
     12 C         -26.2230   21.8040  -78.1620 C.3     1  LIG11      -0.1920
     13 H         -26.9100   21.7010  -77.2970 H       1  LIG11       0.1330
     14 H         -26.7590   22.4310  -78.9100 H       1  LIG11       0.1630
     15 N         -25.7920   20.5050  -78.7560 N.3     1  LIG11      -0.3990
     16 H         -25.0810   20.0790  -78.1500 H       1  LIG11       0.2140
     17 C         -26.9290   19.5590  -78.9260 C.3     1  LIG11      -0.3340
     18 H         -27.8710   20.1260  -78.8400 H       1  LIG11       0.1520
     19 H         -26.9420   19.0080  -79.8780 H       1  LIG11       0.1250
     20 H         -26.9210   18.8250  -78.1030 H       1  LIG11       0.1560
     21 O         -25.0690   23.8190  -78.4490 O.3     1  LIG11      -0.5750
     22 H         -25.9020   23.8390  -78.9570 H       1  LIG11       0.3140
     23 O         -26.8500   24.1410  -73.4400 O.3     1  LIG11      -0.4350
     24 H         -26.5530   24.2900  -72.5060 H       1  LIG11       0.3200
     25 O         -24.6530   23.4990  -72.1490 O.3     1  LIG11      -0.4340
     26 H         -24.6500   24.4740  -71.9760 H       1  LIG11       0.3180
@<TRIPOS>BOND
     1    19    17    1
     2    22    21    1
     3    17    18    1
     4    17    15    1
     5    17    20    1
     6    14    12    1
     7    15    12    1
     8    15    16    1
     9    21    10    1
    10    12    10    1
    11    12    13    1
    12    11    10    1
    13    10     1    1
    14     1     2   ar
    15     1     3   ar
    16     7     2    1
    17     8     3    1
    18     2     4   ar
    19     3     5   ar
    20     4     6   ar
    21     4    23    1
    22     5     9    1
    23     5     6   ar
    24     6    25    1
    25    23    24    1
    26    25    26    1
@<TRIPOS>MOLECULE
not_23122865
 59 62 0 0 0
SMALL
GASTEIGER

@<TRIPOS>ATOM
      1 N         -28.1620   13.1880  -82.7460 N.am    1  LIG11      -0.3410
      2 C         -28.0860   13.7660  -81.4220 C.2     1  LIG11       0.2090
      3 C         -28.1820   12.7660  -80.4780 C.2     1  LIG11      -0.1750
      4 C         -28.2560   11.7600  -82.5800 C.ar    1  LIG11      -0.0080
      5 C         -28.2810   11.4920  -81.1740 C.ar    1  LIG11       0.0820
      6 C         -28.1080   13.9430  -83.9540 C.2     1  LIG11       0.6180
      7 C         -28.2830   10.7140  -83.5130 C.ar    1  LIG11      -0.1010
      8 C         -28.3770   10.1840  -80.6970 C.ar    1  LIG11      -0.3530
      9 O         -27.7920   15.1150  -83.9150 O.2     1  LIG11      -0.4860
     10 C         -28.4320    9.1630  -81.6440 C.ar    1  LIG11       0.3200
     11 C         -28.3790    9.4140  -83.0420 C.ar    1  LIG11      -0.2680
     12 H         -28.2210   10.8980  -84.5840 H       1  LIG11       0.1630
     13 H         -28.4070    9.9970  -79.6210 H       1  LIG11       0.2070
     14 H         -28.4110    8.5660  -83.7240 H       1  LIG11       0.1800
     15 C         -28.1420   12.9070  -79.0030 C.3     1  LIG11      -0.3610
     16 H         -27.4520   13.7150  -78.6830 H       1  LIG11       0.1680
     17 H         -27.7270   11.9670  -78.5580 H       1  LIG11       0.1970
     18 C         -29.5310   13.1090  -78.4190 C.2     1  LIG11       0.6160
     19 N         -30.0230   12.2090  -77.4750 N.am    1  LIG11      -0.5220
     20 H         -30.9740   12.3580  -77.1280 H       1  LIG11       0.2900
     21 O         -30.2610   14.0310  -78.7590 O.2     1  LIG11      -0.5690
     22 CA        -29.2810   11.0800  -76.8670 C.3     1  LIG11       0.0290
     23 HA        -28.4570   10.7610  -77.5650 H       1  LIG11       0.1400
     24 C         -30.2450    9.9240  -76.6750 C.ar    1  LIG11      -0.0360
     25 C         -30.9400    9.7560  -75.4700 C.ar    1  LIG11      -0.1480
     26 C         -31.8320    8.6920  -75.3180 C.ar    1  LIG11      -0.1410
     27 H         -30.7740   10.4570  -74.6430 H       1  LIG11       0.1790
     28 H         -32.3650    8.5620  -74.3770 H       1  LIG11       0.1490
     29 C         -32.0420    7.7950  -76.3700 C.ar    1  LIG11      -0.1380
     30 H         -32.7400    6.9680  -76.2520 H       1  LIG11       0.1470
     31 C         -31.3530    7.9650  -77.5770 C.ar    1  LIG11      -0.1400
     32 H         -31.5190    7.2690  -78.3980 H       1  LIG11       0.1470
     33 C         -30.4580    9.0260  -77.7310 C.ar    1  LIG11      -0.1600
     34 H         -29.9330    9.1530  -78.6750 H       1  LIG11       0.1450
     35 C         -28.5990   11.5250  -75.5450 C.3     1  LIG11      -0.0480
     36 H1        -28.9150   10.8810  -74.7010 H       1  LIG11       0.1560
     37 H2        -27.4980   11.5040  -75.6450 H       1  LIG11       0.1330
     38 O         -29.0040   12.8300  -75.1240 O.3     1  LIG11      -0.5380
     39 H         -29.3190   12.8030  -74.1930 H       1  LIG11       0.3160
     40 C         -27.9510   15.2220  -81.2280 C.3     1  LIG11      -0.5040
     41 H         -27.6260   15.4770  -80.2040 H       1  LIG11       0.1870
     42 H         -27.2460   15.6750  -81.9370 H       1  LIG11       0.1670
     43 H         -28.9230   15.7390  -81.3510 H       1  LIG11       0.2040
     44 C         -28.4810   13.2520  -85.2240 C.ar    1  LIG11      -0.2000
     45 C         -27.5030   12.9650  -86.1880 C.ar    1  LIG11      -0.0470
     46 H         -26.4740   13.3030  -86.0470 H       1  LIG11       0.1630
     47 C         -27.8500   12.2510  -87.3360 C.ar    1  LIG11      -0.2110
     48 H         -27.1010   12.0190  -88.0950 H       1  LIG11       0.1810
     49 C         -29.1760   11.8350  -87.4950 C.ar    1  LIG11       0.1020
     50 CL        -29.6100   10.9590  -88.9140 Cl      1  LIG11      -0.0760
     51 C         -30.1610   12.1080  -86.5420 C.ar    1  LIG11      -0.2130
     52 C         -29.8040   12.8200  -85.3940 C.ar    1  LIG11      -0.0420
     53 H         -31.1870   11.7660  -86.6870 H       1  LIG11       0.1810
     54 H         -30.5540   13.0350  -84.6280 H       1  LIG11       0.1630
     55 O         -28.5370    7.8200  -81.3610 O.3     1  LIG11      -0.3730
     56 C         -29.2030    6.9790  -82.3360 C.3     1  LIG11      -0.1880
     57 H         -29.3000    7.5070  -83.2900 H       1  LIG11       0.1470
     58 H         -28.5070    6.1350  -82.4180 H       1  LIG11       0.1580
     59 H         -30.1760    6.6550  -81.9540 H       1  LIG11       0.1440
@<TRIPOS>BOND
     1    50    49    1
     2    48    47    1
     3    49    47   ar
     4    49    51   ar
     5    47    45   ar
     6    53    51    1
     7    51    52   ar
     8    45    46    1
     9    45    44   ar
    10    52    44   ar
    11    52    54    1
    12    44     6    1
    13    12     7    1
    14     6     9    2
    15     6     1   am
    16    14    11    1
    17     7    11   ar
    18     7     4   ar
    19    57    56    1
    20    11    10   ar
    21     1     4    1
    22     1     2    1
    23     4     5   ar
    24    58    56    1
    25    56    59    1
    26    56    55    1
    27    42    40    1
    28    10    55    1
    29    10     8   ar
    30     2    40    1
    31     2     3    2
    32    43    40    1
    33    40    41    1
    34     5     8   ar
    35     5     3    1
    36     8    13    1
    37     3    15    1
    38    15    16    1
    39    15    17    1
    40    15    18    1
    41    21    18    2
    42    34    33    1
    43    18    19   am
    44    32    31    1
    45    33    31   ar
    46    33    24   ar
    47    31    29   ar
    48    23    22    1
    49    19    20    1
    50    19    22    1
    51    22    24    1
    52    22    35    1
    53    24    25   ar
    54    29    30    1
    55    29    26   ar
    56    37    35    1
    57    35    38    1
    58    35    36    1
    59    25    26   ar
    60    25    27    1
    61    26    28    1
    62    38    39    1
@<TRIPOS>MOLECULE
not_23122927
 52 54 0 0 0
SMALL
GASTEIGER

@<TRIPOS>ATOM
      1 N         -28.3100   12.0200  -82.1850 N.am    0  UNK0       -0.3310
      2 C         -28.3860   13.4440  -82.4010 C.2     0  UNK0        0.1740
      3 C         -28.5850   14.0810  -81.1910 C.2     0  UNK0       -0.1440
      4 C         -28.4460   11.8050  -80.7640 C.ar    0  UNK0       -0.0020
      5 C         -28.6240   13.0740  -80.1410 C.ar    0  UNK0        0.0610
      6 C         -28.1220   10.9490  -83.1050 C.2     0  UNK0        0.6070
      7 C         -28.4210   10.6150  -80.0180 C.ar    0  UNK0       -0.0780
      8 C         -28.7900   13.1710  -78.7550 C.ar    0  UNK0       -0.3530
      9 O         -28.0320    9.8130  -82.6880 O.2     0  UNK0       -0.4670
     10 C         -28.7610   11.9790  -78.0310 C.ar    0  UNK0        0.3210
     11 C         -28.5790   10.7080  -78.6460 C.ar    0  UNK0       -0.2710
     12 H         -28.2780    9.6500  -80.5120 H       0  UNK0        0.1840
     13 H         -28.9370   14.1460  -78.2910 H       0  UNK0        0.2020
     14 H         -28.5670    9.8210  -78.0130 H       0  UNK0        0.1810
     15 C         -28.6950   15.5370  -80.9410 C.3     0  UNK0       -0.3710
     16 H         -29.3920   15.7670  -80.1080 H       0  UNK0        0.1690
     17 H         -29.1420   16.0260  -81.8440 H       0  UNK0        0.1980
     18 C         -27.3360   16.1760  -80.7040 C.2     0  UNK0        0.6190
     19 N         -27.2410   17.5630  -80.5800 N.am    1  ALA1       -0.5360
     20 H         -26.3080   17.9530  -80.4270 H       1  ALA1        0.2830
     21 O         -26.3020   15.5230  -80.6630 O.2     0  UNK0       -0.5670
     22 CA        -28.3730   18.5070  -80.4270 C.3     1  ALA1        0.0990
     23 HA        -29.3310   17.9220  -80.4030 H       1  ALA1        0.1260
     24 CB        -28.3960   19.4750  -81.6110 C.3     1  ALA1       -0.5170
     25 HB1       -28.6040   20.5040  -81.2770 H       1  ALA1        0.1810
     26 HB2       -29.1860   19.2140  -82.3220 H       1  ALA1        0.1630
     27 HB3       -27.4460   19.4840  -82.1580 H       1  ALA1        0.1660
     28 C         -28.2520   19.2830  -79.0880 C.3     1  ALA1       -0.0660
     29 H1        -28.1520   20.3690  -79.2710 H       1  ALA1        0.1470
     30 H2        -29.1180   19.0940  -78.4290 H       1  ALA1        0.1400
     31 O         -27.0390   18.9620  -78.4010 O.3     1  ALA1       -0.5340
     32 H         -27.1870   18.9730  -77.4320 H       1  ALA1        0.3110
     33 C         -28.2450   14.0720  -83.7300 C.3     0  UNK0       -0.5010
     34 H         -28.4180   15.1580  -83.7070 H       0  UNK0        0.1800
     35 H         -27.2360   13.9150  -84.1450 H       0  UNK0        0.1740
     36 H         -28.9480   13.6440  -84.4650 H       0  UNK0        0.1840
     37 C         -28.0590   11.2710  -84.5640 C.ar    0  UNK0       -0.1750
     38 C         -29.2420   11.2880  -85.3180 C.ar    0  UNK0       -0.0690
     39 H         -30.2040   11.1100  -84.8340 H       0  UNK0        0.1630
     40 C         -29.1820   11.5230  -86.6930 C.ar    0  UNK0       -0.2020
     41 H         -30.0920   11.5340  -87.2950 H       0  UNK0        0.1800
     42 C         -27.9340   11.7270  -87.2870 C.ar    0  UNK0        0.0890
     43 CL        -27.8560   12.0290  -88.9810 Cl      0  UNK0       -0.0760
     44 C         -26.7460   11.6930  -86.5520 C.ar    0  UNK0       -0.2010
     45 C         -26.8120   11.4550  -85.1780 C.ar    0  UNK0       -0.0660
     46 H         -25.7830   11.8410  -87.0450 H       0  UNK0        0.1800
     47 H         -25.8960   11.4070  -84.5860 H       0  UNK0        0.1640
     48 O         -28.9000   11.8760  -76.6660 O.3     0  UNK0       -0.3740
     49 C         -29.9860   12.6080  -76.0430 C.3     0  UNK0       -0.1890
     50 H         -30.7360   11.9140  -75.6520 H       0  UNK0        0.1460
     51 H         -29.4660   13.1290  -75.2290 H       0  UNK0        0.1580
     52 H         -30.4220   13.3180  -76.7520 H       0  UNK0        0.1430
@<TRIPOS>BOND
     1    43    42    1
     2    41    40    1
     3    42    40   ar
     4    42    44   ar
     5    46    44    1
     6    40    38   ar
     7    44    45   ar
     8    38    39    1
     9    38    37   ar
    10    45    47    1
    11    45    37   ar
    12    37     6    1
    13    36    33    1
    14    35    33    1
    15    33    34    1
    16    33     2    1
    17     6     9    2
    18     6     1   am
    19     2     1    1
    20     2     3    2
    21    26    24    1
    22     1     4    1
    23    27    24    1
    24    17    15    1
    25    24    25    1
    26    24    22    1
    27     3    15    1
    28     3     5    1
    29    15    18    1
    30    15    16    1
    31     4     5   ar
    32     4     7   ar
    33    18    21    2
    34    18    19   am
    35    19    22    1
    36    19    20    1
    37    12     7    1
    38    22    23    1
    39    22    28    1
    40     5     8   ar
    41     7    11   ar
    42    29    28    1
    43    28    30    1
    44    28    31    1
    45     8    13    1
    46     8    10   ar
    47    11    10   ar
    48    11    14    1
    49    31    32    1
    50    10    48    1
    51    52    49    1
    52    48    49    1
    53    49    50    1
    54    49    51    1
@<TRIPOS>MOLECULE
not_23123076
 59 61 0 0 0
SMALL
GASTEIGER

@<TRIPOS>ATOM
      1 N         -28.1910   13.2490  -83.1770 N.am    0  UNK0       -0.3400
      2 C         -28.0330   13.9600  -81.9290 C.2     0  UNK0        0.2330
      3 C         -28.0280   13.0600  -80.8830 C.2     0  UNK0       -0.2000
      4 C         -28.2830   11.8480  -82.8560 C.ar    0  UNK0       -0.0130
      5 C         -28.1810   11.7240  -81.4340 C.ar    0  UNK0        0.0920
      6 C         -28.2320   13.8810  -84.4570 C.2     0  UNK0        0.6160
      7 C         -28.4310   10.7130  -83.6680 C.ar    0  UNK0       -0.0890
      8 C         -28.2250   10.4680  -80.8180 C.ar    0  UNK0       -0.3650
      9 O         -28.0510   15.0780  -84.5350 O.2     0  UNK0       -0.4780
     10 C         -28.3800    9.3590  -81.6480 C.ar    0  UNK0        0.3260
     11 C         -28.4790    9.4690  -83.0600 C.ar    0  UNK0       -0.2750
     12 H         -28.5080   10.7840  -84.7520 H       0  UNK0        0.1650
     13 H         -28.1420   10.3860  -79.7400 H       0  UNK0        0.1800
     14 H         -28.5940    8.5580  -83.6470 H       0  UNK0        0.1830
     15 C         -27.9020   13.3660  -79.4400 C.3     0  UNK0       -0.3640
     16 H         -27.0780   12.7720  -78.9790 H       0  UNK0        0.1890
     17 H         -27.5840   14.4250  -79.2930 H       0  UNK0        0.1900
     18 C         -29.1550   13.1410  -78.6050 C.2     0  UNK0        0.6010
     19 O         -30.1380   13.8580  -78.7250 O.2     0  UNK0       -0.5650
     20 N         -29.1650   12.0460  -77.7380 N.am    1  MET1       -0.5160
     21 H         -28.2990   11.5600  -77.5140 H       1  MET1        0.2800
     22 CA        -30.2730   11.8650  -76.7650 C.3     1  MET1        0.0350
     23 HA        -31.0620   12.6430  -76.9810 H       1  MET1        0.1650
     24 CB        -29.7760   12.0250  -75.3130 C.3     1  MET1       -0.3060
     25 HB1       -30.4930   12.6480  -74.7380 H       1  MET1        0.1580
     26 HB2       -28.8350   12.6150  -75.3150 H       1  MET1        0.1620
     27 CG        -29.5490   10.6790  -74.6440 C.3     1  MET1       -0.2850
     28 HG1       -30.2240   10.5270  -73.7820 H       1  MET1        0.1540
     29 HG2       -29.7540    9.8410  -75.3430 H       1  MET1        0.1730
     30 SD        -27.8130   10.5040  -74.1390 S.3     1  MET1       -0.0710
     31 CE        -26.9690   10.1000  -75.6850 C.3     1  MET1       -0.5000
     32 HE1       -26.2210   10.8550  -75.9510 H       1  MET1        0.1680
     33 HE2       -26.4480    9.1440  -75.5400 H       1  MET1        0.1820
     34 HE3       -27.6680    9.9810  -76.5180 H       1  MET1        0.1690
     35 C         -30.8960   10.4660  -76.9840 C.3     1  MET1       -0.0430
     36 H1        -31.9660   10.4560  -76.7150 H       1  MET1        0.1270
     37 H2        -30.3590    9.6950  -76.3980 H       1  MET1        0.1520
     38 O         -30.7310   10.0190  -78.3360 O.3     1  MET1       -0.5400
     39 H         -30.3570    9.1150  -78.3500 H       1  MET1        0.3080
     40 C         -27.8930   15.4260  -81.8870 C.3     0  UNK0       -0.5070
     41 H         -27.8490   15.8080  -80.8500 H       0  UNK0        0.1970
     42 H         -26.9900   15.7750  -82.4080 H       0  UNK0        0.1770
     43 H         -28.7640   15.9330  -82.3390 H       0  UNK0        0.1940
     44 C         -28.5050   13.0230  -85.6490 C.ar    0  UNK0       -0.1930
     45 C         -29.8020   12.5400  -85.8700 C.ar    0  UNK0       -0.0530
     46 H         -30.5970   12.7410  -85.1490 H       0  UNK0        0.1620
     47 C         -30.0770   11.7970  -87.0200 C.ar    0  UNK0       -0.2050
     48 H         -31.0810   11.4150  -87.2090 H       0  UNK0        0.1810
     49 C         -29.0420   11.5550  -87.9290 C.ar    0  UNK0        0.0960
     50 CL        -29.3750   10.6320  -89.3440 Cl      0  UNK0       -0.0740
     51 C         -27.7460   12.0390  -87.7250 C.ar    0  UNK0       -0.2050
     52 C         -27.4790   12.7840  -86.5750 C.ar    0  UNK0       -0.0540
     53 H         -26.9590   11.8400  -88.4550 H       0  UNK0        0.1810
     54 H         -26.4770   13.1790  -86.4010 H       0  UNK0        0.1620
     55 O         -28.4430    8.0490  -81.2290 O.3     0  UNK0       -0.3690
     56 C         -28.4610    7.7950  -79.8030 C.3     0  UNK0       -0.1900
     57 H         -27.5000    7.3870  -79.4790 H       0  UNK0        0.1420
     58 H         -28.6160    8.8050  -79.4000 H       0  UNK0        0.1630
     59 H         -29.2940    7.1350  -79.5440 H       0  UNK0        0.1400
@<TRIPOS>BOND
     1    50    49    1
     2    53    51    1
     3    49    51   ar
     4    49    47   ar
     5    51    52   ar
     6    48    47    1
     7    47    45   ar
     8    52    54    1
     9    52    44   ar
    10    45    44   ar
    11    45    46    1
    12    44     6    1
    13    12     7    1
    14     9     6    2
    15     6     1   am
    16     7    11   ar
    17     7     4   ar
    18    14    11    1
    19     1     4    1
    20     1     2    1
    21    11    10   ar
    22     4     5   ar
    23    42    40    1
    24    43    40    1
    25     2    40    1
    26     2     3    2
    27    40    41    1
    28    10    55    1
    29    10     8   ar
    30     5     3    1
    31     5     8   ar
    32    55    56    1
    33     3    15    1
    34     8    13    1
    35    56    59    1
    36    56    57    1
    37    56    58    1
    38    15    17    1
    39    15    16    1
    40    15    18    1
    41    19    18    2
    42    18    20   am
    43    39    38    1
    44    38    35    1
    45    20    21    1
    46    20    22    1
    47    35    22    1
    48    35    36    1
    49    35    37    1
    50    23    22    1
    51    22    24    1
    52    34    31    1
    53    32    31    1
    54    31    33    1
    55    31    30    1
    56    29    27    1
    57    26    24    1
    58    24    25    1
    59    24    27    1
    60    27    30    1
    61    27    28    1
@<TRIPOS>MOLECULE
not_2562
 40 42 0 0 0
SMALL
GASTEIGER

@<TRIPOS>ATOM
      1 N         -25.1240   21.3360  -78.2000 N.ar    1  LIG11      -0.0350
      2 N         -25.7130   20.8830  -79.3400 N.ar    1  LIG11      -0.1550
      3 C         -26.0890   21.8330  -77.2830 C.ar    1  LIG11       0.0480
      4 C         -27.3280   21.6600  -77.8980 C.ar    1  LIG11      -0.2310
      5 C         -27.0550   21.0670  -79.1740 C.ar    1  LIG11      -0.1060
      6 H         -28.2910   21.9250  -77.5070 H       1  LIG11       0.1950
      7 C         -23.6900   21.2560  -78.0440 C.ar    1  LIG11       0.2520
      8 C         -23.0260   22.2380  -77.2900 C.ar    1  LIG11      -0.2880
      9 H         -23.5810   23.0390  -76.7980 H       1  LIG11       0.1920
     10 C         -21.6370   22.1720  -77.1700 C.ar    1  LIG11       0.0660
     11 H         -21.1130   22.9280  -76.5740 H       1  LIG11       0.1600
     12 C         -20.9230   21.1420  -77.7910 C.ar    1  LIG11      -0.5960
     13 C         -21.5970   20.1500  -78.5110 C.ar    1  LIG11       0.0550
     14 C         -22.9860   20.1980  -78.6430 C.ar    1  LIG11      -0.2640
     15 H         -21.0360   19.3260  -78.9720 H       1  LIG11       0.1690
     16 H         -23.5190   19.4170  -79.1950 H       1  LIG11       0.1990
     17 S         -19.1990   21.0950  -77.6600 S.O2    1  LIG11       2.5010
     18 O         -18.7360   22.2570  -76.9350 O.2     1  LIG11      -0.9270
     19 O         -18.7880   19.7570  -77.2920 O.2     1  LIG11      -0.9310
     20 N         -18.6730   21.3290  -79.2830 N.3     1  LIG11      -0.9360
     21 H         -17.9420   20.7170  -79.6410 H       1  LIG11       0.2720
     22 H         -19.3790   21.4600  -80.0040 H       1  LIG11       0.2720
     23 C         -25.7780   22.4320  -75.9890 C.ar    1  LIG11      -0.0720
     24 C         -25.0060   21.7150  -75.0590 C.ar    1  LIG11      -0.0900
     25 H         -24.6250   20.7260  -75.3170 H       1  LIG11       0.1560
     26 C         -24.7290   22.2660  -73.8090 C.ar    1  LIG11      -0.2340
     27 H         -24.1280   21.7060  -73.0940 H       1  LIG11       0.1630
     28 C         -25.2250   23.5360  -73.4660 C.ar    1  LIG11       0.1530
     29 C         -25.9990   24.2490  -74.3970 C.ar    1  LIG11      -0.2320
     30 C         -26.2760   23.7010  -75.6490 C.ar    1  LIG11      -0.0910
     31 H         -26.3870   25.2330  -74.1400 H       1  LIG11       0.1620
     32 H         -26.8820   24.2590  -76.3650 H       1  LIG11       0.1530
     33 C         -24.9200   24.1270  -72.1300 C.3     1  LIG11      -0.5120
     34 H         -25.1600   23.4150  -71.3260 H       1  LIG11       0.1750
     35 H         -25.4970   25.0410  -71.9340 H       1  LIG11       0.1720
     36 H         -23.8590   24.3940  -72.0170 H       1  LIG11       0.1700
     37 C         -28.0430   20.6820  -80.2190 C.3     1  LIG11       0.5340
     38 F         -29.2590   21.2300  -80.0750 F       1  LIG11      -0.1680
     39 F         -27.6810   21.0260  -81.4670 F       1  LIG11      -0.1810
     40 F         -28.2830   19.3630  -80.3060 F       1  LIG11      -0.1700
@<TRIPOS>BOND
     1    39    37    1
     2    40    37    1
     3    37    38    1
     4    37     5    1
     5    22    20    1
     6    21    20    1
     7     2     5   ar
     8     2     1   ar
     9    20    17    1
    10    16    14    1
    11     5     4   ar
    12    15    13    1
    13    14    13   ar
    14    14     7   ar
    15    13    12   ar
    16     1     7    1
    17     1     3   ar
    18     7     8   ar
    19     4     6    1
    20     4     3   ar
    21    12    17    1
    22    12    10   ar
    23    17    19    2
    24    17    18    2
    25     8    10   ar
    26     8     9    1
    27     3    23    1
    28    10    11    1
    29    32    30    1
    30    23    30   ar
    31    23    24   ar
    32    30    29   ar
    33    25    24    1
    34    24    26   ar
    35    29    31    1
    36    29    28   ar
    37    26    28   ar
    38    26    27    1
    39    28    33    1
    40    33    36    1
    41    33    35    1
    42    33    34    1
@<TRIPOS>MOLECULE
not_2925
 30 31 0 0 0
SMALL
GASTEIGER

@<TRIPOS>ATOM
      1 C         -24.9750   21.2690  -77.0260 C.ar    1  LIG11       0.0080
      2 C         -24.7250   22.0810  -75.8970 C.ar    1  LIG11       0.1350
      3 C         -23.9520   21.0860  -77.9670 C.ar    1  LIG11      -0.1360
      4 C         -23.4830   22.7170  -75.7410 C.ar    1  LIG11      -0.2170
      5 C         -22.7150   21.7130  -77.8050 C.ar    1  LIG11      -0.1600
      6 C         -22.4840   22.5350  -76.6980 C.ar    1  LIG11      -0.1010
      7 H         -24.1230   20.4460  -78.8330 H       1  LIG11       0.1580
      8 H         -23.2970   23.3540  -74.8770 H       1  LIG11       0.1670
      9 H         -21.9300   21.5600  -78.5460 H       1  LIG11       0.1550
     10 H         -21.5200   23.0280  -76.5760 H       1  LIG11       0.1500
     11 N         -25.7760   22.2020  -74.9010 N.pl3   1  LIG11      -0.4130
     12 H         -25.5810   21.5910  -74.0880 H       1  LIG11       0.2760
     13 C         -26.2510   23.5010  -74.5640 C.ar    1  LIG11       0.1460
     14 C         -27.1720   24.1970  -75.3790 C.ar    1  LIG11      -0.0810
     15 CL        -27.8630   23.4180  -76.7490 Cl      1  LIG11      -0.0630
     16 C         -27.5510   25.5130  -75.1090 C.ar    1  LIG11      -0.1080
     17 H         -28.2630   26.0200  -75.7640 H       1  LIG11       0.1700
     18 C         -27.0200   26.1710  -73.9970 C.ar    1  LIG11      -0.1680
     19 C         -26.1030   25.5180  -73.1710 C.ar    1  LIG11      -0.1180
     20 H         -27.3210   27.1950  -73.7760 H       1  LIG11       0.1630
     21 C         -25.7200   24.2070  -73.4590 C.ar    1  LIG11      -0.0460
     22 H         -25.6800   26.0300  -72.3040 H       1  LIG11       0.1700
     23 CL        -24.5630   23.4500  -72.4400 Cl      1  LIG11      -0.0540
     24 C         -26.3150   20.6280  -77.2510 C.3     1  LIG11      -0.4460
     25 H         -27.1400   21.3160  -76.9570 H       1  LIG11       0.1960
     26 H         -26.4200   19.7450  -76.5800 H       1  LIG11       0.1950
     27 C         -26.4960   20.2530  -78.7040 C.2     1  LIG11       0.6570
     28 O         -26.6210   20.9870  -79.6470 O.2     1  LIG11      -0.4400
     29 O         -26.5240   18.8960  -78.9680 O.3     1  LIG11      -0.5370
     30 H         -25.6460   18.4910  -79.1750 H       1  LIG11       0.3390
@<TRIPOS>BOND
     1    28    27    2
     2    30    29    1
     3    29    27    1
     4     7     3    1
     5    27    24    1
     6     9     5    1
     7     3     5   ar
     8     3     1   ar
     9     5     6   ar
    10    24     1    1
    11    24    25    1
    12    24    26    1
    13     1     2   ar
    14    15    14    1
    15     6    10    1
    16     6     4   ar
    17     2     4   ar
    18     2    11    1
    19    17    16    1
    20     4     8    1
    21    14    16   ar
    22    14    13   ar
    23    16    18   ar
    24    11    13    1
    25    11    12    1
    26    13    21   ar
    27    18    20    1
    28    18    19   ar
    29    21    19   ar
    30    21    23    1
    31    19    22    1
@<TRIPOS>MOLECULE
not_2971
 14 13 0 0 0
SMALL
GASTEIGER

@<TRIPOS>ATOM
      1 C         -26.7340   23.5620  -74.6940 C.3     1  LIG11      -0.1450
      2 H         -27.5440   22.8950  -74.2900 H       1  LIG11       0.1920
      3 C         -25.3720   22.9090  -74.4080 C.3     1  LIG11      -0.0090
      4 H         -25.1110   22.9690  -73.3310 H       1  LIG11       0.1480
      5 H         -24.5550   23.3480  -75.0070 H       1  LIG11       0.1200
      6 O         -25.4350   21.5030  -74.6320 O.3     1  LIG11      -0.5390
      7 H         -24.5370   21.1310  -74.7980 H       1  LIG11       0.3240
      8 C         -26.8150   24.9510  -74.0980 C.3     1  LIG11      -0.3210
      9 H         -26.1410   25.6420  -74.6450 H       1  LIG11       0.1650
     10 H         -27.8300   25.3880  -74.1740 H       1  LIG11       0.1640
     11 S         -26.3130   24.8770  -72.3430 S.3     1  LIG11      -0.2080
     12 H         -25.7670   23.6430  -72.3440 H       1  LIG11       0.1810
     13 S         -26.9690   23.5400  -76.5070 S.3     1  LIG11      -0.2610
     14 H         -25.6920   23.6800  -76.9170 H       1  LIG11       0.1880
@<TRIPOS>BOND
     1    14    13    1
     2    13     1    1
     3     5     3    1
     4     7     6    1
     5     1     3    1
     6     1     2    1
     7     1     8    1
     8     9     8    1
     9     6     3    1
    10     3     4    1
    11    10     8    1
    12     8    11    1
    13    12    11    1
@<TRIPOS>MOLECULE
not_3065
 35 37 0 0 0
SMALL
GASTEIGER

@<TRIPOS>ATOM
      1 BR        -27.8160    8.4610  -84.2220 Br      1  LIG11      -0.0130
      2 S         -28.1060   11.4750  -83.2800 S.2     1  LIG11       0.1720
      3 C         -28.2770   10.7940  -80.8060 C.ar    1  LIG11      -0.0710
      4 C         -28.2970   11.9120  -81.6030 C.ar    1  LIG11      -0.0830
      5 C         -28.1200    9.5670  -81.5640 C.ar    1  LIG11      -0.1470
      6 C         -28.0210    9.7710  -82.9060 C.ar    1  LIG11      -0.1210
      7 H         -28.0990    8.5980  -81.0780 H       1  LIG11       0.1800
      8 C         -28.4110   10.7830  -79.3430 C.ar    1  LIG11       0.1460
      9 C         -27.2770   10.9410  -78.5290 C.ar    1  LIG11      -0.2650
     10 H         -26.2970   11.0970  -78.9810 H       1  LIG11       0.1700
     11 C         -27.4080   10.9230  -77.1380 C.ar    1  LIG11       0.0390
     12 H         -26.5230   11.0650  -76.5040 H       1  LIG11       0.1620
     13 C         -28.6630   10.7400  -76.5530 C.ar    1  LIG11      -0.6180
     14 C         -29.7970   10.6010  -77.3600 C.ar    1  LIG11       0.0320
     15 C         -29.6740   10.6120  -78.7500 C.ar    1  LIG11      -0.2540
     16 H         -30.7870   10.4970  -76.9050 H       1  LIG11       0.1510
     17 H         -30.5580   10.5000  -79.3770 H       1  LIG11       0.1740
     18 S         -28.8270   10.7410  -74.8230 S.O2    1  LIG11       2.4820
     19 O         -29.0000   12.1160  -74.3840 O.2     1  LIG11      -0.9490
     20 O         -29.8120    9.7410  -74.4510 O.2     1  LIG11      -0.9430
     21 C         -27.2610   10.1840  -74.2600 C.3     1  LIG11      -0.9700
     22 H         -27.3220    9.4830  -73.4180 H       1  LIG11       0.2210
     23 H         -26.7120    9.6430  -75.0470 H       1  LIG11       0.2300
     24 H         -26.5930   10.9960  -73.9500 H       1  LIG11       0.2190
     25 C         -28.4290   13.3200  -81.2640 C.ar    1  LIG11      -0.0470
     26 C         -27.3980   14.2210  -81.5920 C.ar    1  LIG11      -0.0690
     27 H         -26.5020   13.8560  -82.0980 H       1  LIG11       0.1620
     28 C         -27.5150   15.5730  -81.2710 C.ar    1  LIG11      -0.2510
     29 H         -26.7210   16.2760  -81.5220 H       1  LIG11       0.1830
     30 C         -28.6760   15.9950  -80.6170 C.ar    1  LIG11       0.2320
     31 F         -28.7980   17.2860  -80.3060 F       1  LIG11      -0.1520
     32 C         -29.7180   15.1270  -80.2740 C.ar    1  LIG11      -0.2550
     33 C         -29.5850   13.7780  -80.6070 C.ar    1  LIG11      -0.0870
     34 H         -30.6090   15.4890  -79.7630 H       1  LIG11       0.1800
     35 H         -30.3820   13.0780  -80.3480 H       1  LIG11       0.1600
@<TRIPOS>BOND
     1     1     6    1
     2     2     6   ar
     3     2     4   ar
     4     6     5   ar
     5    27    26    1
     6     4    25    1
     7     4     3   ar
     8    26    28   ar
     9    26    25   ar
    10     5     7    1
    11     5     3   ar
    12    29    28    1
    13    28    30   ar
    14    25    33   ar
    15     3     8    1
    16    30    31    1
    17    30    32   ar
    18    33    35    1
    19    33    32   ar
    20    32    34    1
    21    17    15    1
    22     8    15   ar
    23     8     9   ar
    24    10     9    1
    25    15    14   ar
    26     9    11   ar
    27    14    16    1
    28    14    13   ar
    29    11    13   ar
    30    11    12    1
    31    13    18    1
    32    23    21    1
    33    18    20    2
    34    18    19    2
    35    18    21    1
    36    21    24    1
    37    21    22    1
@<TRIPOS>MOLECULE
not_3350
 17 17 0 0 0
SMALL
GASTEIGER

@<TRIPOS>ATOM
      1 C         -26.0760   23.8660  -74.0290 C.ar    1  LIG11      -0.2530
      2 C         -24.9810   23.0260  -73.7810 C.ar    1  LIG11       0.2990
      3 C         -26.8030   23.6700  -75.2180 C.ar    1  LIG11      -0.1760
      4 C         -26.4140   22.6630  -76.1020 C.ar    1  LIG11       0.2120
      5 C         -24.5870   22.0110  -74.6740 C.ar    1  LIG11      -0.2790
      6 C         -25.3060   21.8250  -75.8450 C.ar    1  LIG11      -0.1090
      7 H         -27.6660   24.3120  -75.4200 H       1  LIG11       0.1900
      8 H         -23.7300   21.3800  -74.4460 H       1  LIG11       0.1740
      9 H         -25.0410   21.0530  -76.5700 H       1  LIG11       0.1800
     10 C         -26.5530   24.9550  -73.1260 C.2     1  LIG11       0.6740
     11 O         -26.5080   24.9110  -71.9200 O.2     1  LIG11      -0.4640
     12 O         -27.1040   26.0800  -73.6730 O.3     1  LIG11      -0.5130
     13 H         -26.6510   26.9440  -73.4700 H       1  LIG11       0.3510
     14 O         -24.3010   23.2390  -72.6010 O.3     1  LIG11      -0.4980
     15 H         -24.7520   22.8360  -71.8210 H       1  LIG11       0.3420
     16 O         -27.0620   22.4050  -77.2870 O.3     1  LIG11      -0.4580
     17 H         -26.5640   22.7590  -78.0670 H       1  LIG11       0.3280
@<TRIPOS>BOND
     1    17    16    1
     2    16     4    1
     3     9     6    1
     4     4     6   ar
     5     4     3   ar
     6     6     5   ar
     7     7     3    1
     8     3     1   ar
     9     5     8    1
    10     5     2   ar
    11     1     2   ar
    12     1    10    1
    13     2    14    1
    14    12    13    1
    15    12    10    1
    16    10    11    2
    17    14    15    1
@<TRIPOS>MOLECULE
not_391555
 86 86 0 0 0
SMALL
GASTEIGER

@<TRIPOS>ATOM
      1 O         -28.8850   15.4670  -79.8630 O.3     1  LIG11      -0.4650
      2 C         -29.5180   14.1660  -79.9910 C.3     1  LIG11      -0.0960
      3 H         -29.5160   13.8210  -81.0430 H       1  LIG11       0.1610
      4 H         -30.5580   14.2710  -79.6400 H       1  LIG11       0.1380
      5 C         -28.6470   13.2500  -79.1080 C.3     1  LIG11       0.1130
      6 H         -27.8260   13.8330  -78.6150 H       1  LIG11       0.1790
      7 O         -27.8850   12.3780  -79.9480 O.3     1  LIG11      -0.4570
      8 C         -28.2910   12.2140  -81.3260 C.3     1  LIG11      -0.0730
      9 H         -27.5710   12.8460  -81.8800 H       1  LIG11       0.1430
     10 H         -29.3160   12.5730  -81.5060 H       1  LIG11       0.1390
     11 C         -28.1350   10.7300  -81.6810 C.3     1  LIG11      -0.0220
     12 H         -29.0020   10.3590  -82.2590 H       1  LIG11       0.1430
     13 H         -27.1990   10.5580  -82.2440 H       1  LIG11       0.1370
     14 O         -28.1510    9.9180  -80.5050 O.3     1  LIG11      -0.5670
     15 H         -29.0940    9.7250  -80.2430 H       1  LIG11       0.3340
     16 C         -29.5060   12.5280  -78.0560 C.3     1  LIG11       0.0380
     17 H         -30.3590   13.1560  -77.7000 H       1  LIG11       0.1640
     18 O         -30.0860   11.3680  -78.7140 O.3     1  LIG11      -0.4600
     19 C         -30.1530   10.2510  -77.7870 C.3     1  LIG11      -0.0770
     20 H         -31.2180   10.1220  -77.5340 H       1  LIG11       0.1380
     21 H         -29.7790    9.3910  -78.3680 H       1  LIG11       0.1580
     22 C         -29.2710   10.5850  -76.5720 C.3     1  LIG11       0.0580
     23 H         -29.8220   10.5650  -75.6090 H       1  LIG11       0.1410
     24 C         -28.6810   11.9860  -76.8680 C.3     1  LIG11       0.0780
     25 H         -27.5870   11.9290  -77.0780 H       1  LIG11       0.1720
     26 O         -28.1260    9.7170  -76.5130 O.3     1  LIG11      -0.4730
     27 C         -26.8460   10.3980  -76.5240 C.3     1  LIG11      -0.0740
     28 H         -26.3440   10.2760  -75.5480 H       1  LIG11       0.1400
     29 H         -27.0160   11.4690  -76.7290 H       1  LIG11       0.1270
     30 C         -26.0780    9.6980  -77.6470 C.3     1  LIG11      -0.0130
     31 H         -25.7330   10.4260  -78.4070 H       1  LIG11       0.1410
     32 H         -25.2190    9.1150  -77.2600 H       1  LIG11       0.1520
     33 O         -26.8920    8.6980  -78.2670 O.3     1  LIG11      -0.5390
     34 H         -26.4280    8.3260  -79.0490 H       1  LIG11       0.3140
     35 O         -28.9640   12.8730  -75.7770 O.3     1  LIG11      -0.4760
     36 C         -29.7800   12.2830  -74.7280 C.3     1  LIG11      -0.0690
     37 H         -29.9290   11.2070  -74.9390 H       1  LIG11       0.1490
     38 H         -30.7540   12.7980  -74.7100 H       1  LIG11       0.1320
     39 C         -28.9580   12.5100  -73.4580 C.3     1  LIG11      -0.0180
     40 H         -29.5280   12.2100  -72.5560 H       1  LIG11       0.1430
     41 H         -27.9900   11.9760  -73.4860 H       1  LIG11       0.1530
     42 O         -28.5620   13.8820  -73.3550 O.3     1  LIG11      -0.5400
     43 H         -27.9230   14.0000  -72.6220 H       1  LIG11       0.3110
     44 C         -28.0880   15.8550  -80.9920 C.3     1  LIG11      -0.0210
     45 H         -27.0960   15.3640  -80.9500 H       1  LIG11       0.1510
     46 H         -28.6790   15.4550  -81.8380 H       1  LIG11       0.1510
     47 C         -27.9410   17.3780  -81.0640 C.3     1  LIG11      -0.0610
     48 H         -28.7190   17.8310  -81.7050 H       1  LIG11       0.1470
     49 H         -26.9350   17.6950  -81.3860 H       1  LIG11       0.1340
     50 O         -28.1190   17.7950  -79.6850 O.3     1  LIG11      -0.4800
     51 C         -27.5910   18.9850  -79.1930 C.2     1  LIG11       0.6440
     52 O         -26.4610   18.8760  -78.7870 O.2     1  LIG11      -0.4570
     53 C         -28.4490   20.2150  -79.2320 C.3     1  LIG11      -0.4370
     54 H         -29.2860   20.1280  -78.5050 H       1  LIG11       0.1820
     55 H         -28.9230   20.3120  -80.2320 H       1  LIG11       0.1810
     56 C         -27.6160   21.4650  -78.9170 C.3     1  LIG11      -0.2210
     57 H         -26.5480   21.1840  -78.8270 H       1  LIG11       0.1460
     58 H         -27.6590   22.1700  -79.7740 H       1  LIG11       0.1500
     59 C         -28.0960   22.1570  -77.6360 C.3     1  LIG11      -0.2680
     60 H         -28.6340   21.4360  -76.9900 H       1  LIG11       0.1340
     61 H         -28.8290   22.9480  -77.8820 H       1  LIG11       0.1340
     62 C         -26.9130   22.7570  -76.8650 C.3     1  LIG11      -0.2620
     63 H         -27.1350   23.8100  -76.6010 H       1  LIG11       0.1350
     64 H         -26.7790   22.2290  -75.9020 H       1  LIG11       0.1350
     65 C         -25.6140   22.6870  -77.6790 C.3     1  LIG11      -0.2630
     66 H         -25.3950   23.6730  -78.1320 H       1  LIG11       0.1320
     67 H         -25.7360   21.9860  -78.5260 H       1  LIG11       0.1320
     68 C         -24.4330   22.2480  -76.8010 C.3     1  LIG11      -0.2630
     69 H         -24.0500   21.2700  -77.1500 H       1  LIG11       0.1330
     70 H         -23.5920   22.9590  -76.9180 H       1  LIG11       0.1330
     71 C         -24.8330   22.1550  -75.3220 C.3     1  LIG11      -0.2620
     72 H         -25.0690   21.1070  -75.0590 H       1  LIG11       0.1320
     73 H         -25.7640   22.7270  -75.1470 H       1  LIG11       0.1320
     74 C         -23.7160   22.6800  -74.4100 C.3     1  LIG11      -0.2640
     75 H         -23.2830   21.8410  -73.8300 H       1  LIG11       0.1320
     76 H         -22.8850   23.0830  -75.0210 H       1  LIG11       0.1320
     77 C         -24.2300   23.7650  -73.4550 C.3     1  LIG11      -0.2660
     78 H         -23.7360   24.7310  -73.6750 H       1  LIG11       0.1320
     79 H         -23.9490   23.5140  -72.4140 H       1  LIG11       0.1320
     80 C         -25.7530   23.9280  -73.5590 C.3     1  LIG11      -0.2210
     81 H         -26.0390   24.1180  -74.6120 H       1  LIG11       0.1260
     82 H         -26.2530   22.9810  -73.2770 H       1  LIG11       0.1260
     83 C         -26.2620   25.0630  -72.6740 C.3     1  LIG11      -0.4640
     84 H         -25.9090   24.9520  -71.6430 H       1  LIG11       0.1440
     85 H         -27.3580   25.0900  -72.6440 H       1  LIG11       0.1470
     86 H         -25.9210   26.0400  -73.0340 H       1  LIG11       0.1470
@<TRIPOS>BOND
     1    12    11    1
     2    13    11    1
     3     9     8    1
     4    46    44    1
     5    48    47    1
     6    11     8    1
     7    11    14    1
     8    10     8    1
     9    49    47    1
    10     8     7    1
    11    47    44    1
    12    47    50    1
    13     3     2    1
    14    44    45    1
    15    44     1    1
    16    14    15    1
    17    55    53    1
    18     2     1    1
    19     2     4    1
    20     2     5    1
    21     7     5    1
    22    58    56    1
    23    50    51    1
    24    53    51    1
    25    53    56    1
    26    53    54    1
    27    51    52    2
    28     5     6    1
    29     5    16    1
    30    34    33    1
    31    56    57    1
    32    56    59    1
    33    18    16    1
    34    18    19    1
    35    67    65    1
    36    31    30    1
    37    21    19    1
    38    33    30    1
    39    66    65    1
    40    16    17    1
    41    16    24    1
    42    61    59    1
    43    19    20    1
    44    19    22    1
    45    65    62    1
    46    65    68    1
    47    30    32    1
    48    30    27    1
    49    59    60    1
    50    59    62    1
    51    69    68    1
    52    25    24    1
    53    70    68    1
    54    24    22    1
    55    24    35    1
    56    62    63    1
    57    62    64    1
    58    68    71    1
    59    29    27    1
    60    22    26    1
    61    22    23    1
    62    27    26    1
    63    27    28    1
    64    35    36    1
    65    71    73    1
    66    71    72    1
    67    71    74    1
    68    76    74    1
    69    37    36    1
    70    36    38    1
    71    36    39    1
    72    81    80    1
    73    74    75    1
    74    74    77    1
    75    78    77    1
    76    80    77    1
    77    80    82    1
    78    80    83    1
    79    41    39    1
    80    39    42    1
    81    39    40    1
    82    77    79    1
    83    42    43    1
    84    86    83    1
    85    83    85    1
    86    83    84    1
@<TRIPOS>MOLECULE
not_392800
 57 58 0 0 0
SMALL
GASTEIGER

@<TRIPOS>ATOM
      1 O         -27.9880   13.9090  -78.9610 O.3     1  LIG11      -0.2110
      2 O         -26.9770   14.2020  -79.9780 O.3     1  LIG11      -0.2220
      3 C         -29.3800   12.7550  -80.6010 C.3     1  LIG11      -0.1250
      4 C         -28.2560   13.0450  -81.6560 C.3     1  LIG11      -0.1740
      5 C         -29.2640   13.9980  -79.6640 C.3     1  LIG11       0.0970
      6 C         -27.7370   14.4450  -81.2000 C.3     1  LIG11       0.1040
      7 C         -28.9970   15.1550  -80.6550 C.3     1  LIG11      -0.3870
      8 H         -30.3770   12.7490  -81.0920 H       1  LIG11       0.1410
      9 H         -27.4180   12.3120  -81.5350 H       1  LIG11       0.1650
     10 H         -30.0190   14.1120  -78.8810 H       1  LIG11       0.1480
     11 H         -27.0580   14.9820  -81.8670 H       1  LIG11       0.1440
     12 H         -28.7740   16.1090  -80.1550 H       1  LIG11       0.1730
     13 H         -29.7860   15.3280  -81.3950 H       1  LIG11       0.1650
     14 C         -28.7080   13.0130  -83.0830 C.2     1  LIG11      -0.1420
     15 C         -28.3470   12.0650  -83.9490 C.2     1  LIG11      -0.2700
     16 H         -27.7270   11.2120  -83.6640 H       1  LIG11       0.1710
     17 H         -29.3410   13.8490  -83.3860 H       1  LIG11       0.1430
     18 C         -28.7580   12.0640  -85.4000 C.3     1  LIG11       0.1920
     19 H         -28.9200   11.0310  -85.7820 H       1  LIG11       0.1100
     20 O         -30.0100   12.7780  -85.5310 O.3     1  LIG11      -0.5700
     21 H         -29.8610   13.6700  -85.8920 H       1  LIG11       0.3060
     22 C         -27.7790   12.8540  -86.2830 C.3     1  LIG11      -0.3070
     23 H         -28.3600   13.4040  -87.0520 H       1  LIG11       0.1640
     24 H         -27.2590   13.6200  -85.6790 H       1  LIG11       0.1430
     25 C         -26.7700   11.9230  -86.9660 C.3     1  LIG11      -0.2520
     26 H         -26.9550   11.9350  -88.0600 H       1  LIG11       0.1490
     27 H         -26.9320   10.8780  -86.6410 H       1  LIG11       0.1270
     28 C         -25.3250   12.3410  -86.6710 C.3     1  LIG11      -0.2670
     29 H         -24.6640   12.0430  -87.5070 H       1  LIG11       0.1350
     30 H         -25.2520   13.4430  -86.6090 H       1  LIG11       0.1300
     31 C         -24.8210   11.7090  -85.3640 C.3     1  LIG11      -0.2210
     32 H         -25.2450   12.2550  -84.4990 H       1  LIG11       0.1280
     33 H         -23.7230   11.8250  -85.2860 H       1  LIG11       0.1260
     34 C         -25.1880   10.2300  -85.2700 C.3     1  LIG11      -0.4640
     35 H         -25.0510    9.7170  -86.2300 H       1  LIG11       0.1480
     36 H         -26.2360   10.1020  -84.9770 H       1  LIG11       0.1450
     37 H         -24.5740    9.7070  -84.5280 H       1  LIG11       0.1460
     38 C         -29.1570   11.4430  -79.8470 C.3     1  LIG11      -0.2930
     39 H         -28.6790   11.6510  -78.8670 H       1  LIG11       0.1490
     40 H         -30.1520   10.9910  -79.6130 H       1  LIG11       0.1740
     41 C         -28.3210   10.4610  -80.6110 C.2     1  LIG11      -0.1470
     42 C         -27.6840    9.4190  -80.0670 C.2     1  LIG11      -0.1730
     43 H         -27.1020    8.7390  -80.6940 H       1  LIG11       0.1440
     44 H         -28.2470   10.6470  -81.6840 H       1  LIG11       0.1390
     45 C         -27.6920    9.0580  -78.6110 C.3     1  LIG11      -0.2680
     46 H         -28.5350    9.5760  -78.1080 H       1  LIG11       0.1400
     47 H         -27.8840    7.9770  -78.4680 H       1  LIG11       0.1390
     48 C         -26.3600    9.4500  -77.9560 C.3     1  LIG11      -0.2090
     49 H         -25.5190    9.2830  -78.6610 H       1  LIG11       0.1540
     50 H         -26.1540    8.7860  -77.0910 H       1  LIG11       0.1510
     51 C         -26.3670   10.9150  -77.4970 C.3     1  LIG11      -0.4510
     52 H         -25.3790   11.1830  -77.0630 H       1  LIG11       0.1840
     53 H         -26.5100   11.5820  -78.3700 H       1  LIG11       0.1750
     54 C         -27.4350   11.1470  -76.4590 C.2     1  LIG11       0.6520
     55 O         -27.8030   10.4160  -75.5790 O.2     1  LIG11      -0.4380
     56 O         -28.0560   12.3860  -76.5170 O.3     1  LIG11      -0.5380
     57 H         -28.4930   12.6060  -77.3650 H       1  LIG11       0.3250
@<TRIPOS>BOND
     1    26    25    1
     2    29    28    1
     3    23    22    1
     4    25    28    1
     5    25    27    1
     6    25    22    1
     7    28    30    1
     8    28    31    1
     9    22    24    1
    10    22    18    1
    11    35    34    1
    12    21    20    1
    13    19    18    1
    14    20    18    1
    15    18    15    1
    16    31    33    1
    17    31    34    1
    18    31    32    1
    19    34    36    1
    20    34    37    1
    21    15    16    1
    22    15    14    2
    23    17    14    1
    24    14     4    1
    25    11     6    1
    26    44    41    1
    27     4     9    1
    28     4     6    1
    29     4     3    1
    30    13     7    1
    31     6     7    1
    32     6     2    1
    33     8     3    1
    34    43    42    1
    35     7    12    1
    36     7     5    1
    37    41    42    2
    38    41    38    1
    39     3    38    1
    40     3     5    1
    41    42    45    1
    42     2     1    1
    43    38    40    1
    44    38    39    1
    45     5     1    1
    46     5    10    1
    47    49    48    1
    48    45    47    1
    49    45    46    1
    50    45    48    1
    51    53    51    1
    52    48    51    1
    53    48    50    1
    54    51    52    1
    55    51    54    1
    56    57    56    1
    57    56    54    1
    58    54    55    2
@<TRIPOS>MOLECULE
not_4339
 33 34 0 0 0
SMALL
GASTEIGER

@<TRIPOS>ATOM
      1 C         -27.1750   12.6550  -78.7450 C.ar    1  LIG11       0.2980
      2 C         -27.0980   13.6790  -79.7330 C.ar    1  LIG11       0.0500
      3 C         -25.9870   12.3440  -78.0370 C.ar    1  LIG11      -0.3420
      4 C         -25.9310   14.3950  -79.9700 C.ar    1  LIG11      -0.0410
      5 C         -24.7810   14.0670  -79.2350 C.ar    1  LIG11      -0.2780
      6 C         -24.8090   13.0390  -78.2750 C.ar    1  LIG11       0.0410
      7 H         -25.9980   11.5570  -77.2820 H       1  LIG11       0.1830
      8 H         -25.9050   15.1950  -80.7210 H       1  LIG11       0.1970
      9 H         -23.8950   12.7990  -77.7170 H       1  LIG11       0.1760
     10 O         -28.2740   14.0270  -80.4130 O.3     1  LIG11      -0.3760
     11 C         -28.2810   13.8010  -81.7990 C.ar    1  LIG11       0.2940
     12 C         -28.4270   12.4500  -82.1440 C.ar    1  LIG11      -0.2900
     13 H         -28.6230   11.7050  -81.3750 H       1  LIG11       0.1830
     14 C         -28.3320   12.1080  -83.4940 C.ar    1  LIG11      -0.0430
     15 H         -28.4430   11.0650  -83.7950 H       1  LIG11       0.1480
     16 C         -28.1020   13.0930  -84.4630 C.ar    1  LIG11      -0.2300
     17 C         -27.9740   14.4340  -84.0880 C.ar    1  LIG11      -0.0360
     18 H         -28.0290   12.8130  -85.5120 H       1  LIG11       0.1610
     19 C         -28.0630   14.8080  -82.7430 C.ar    1  LIG11      -0.3210
     20 H         -27.8000   15.1990  -84.8470 H       1  LIG11       0.1470
     21 H         -27.9680   15.8480  -82.4450 H       1  LIG11       0.1790
     22 N         -28.3500   11.9300  -78.5090 N.pl3   1  LIG11      -0.8100
     23 H         -28.2480   10.9070  -78.6550 H       1  LIG11       0.3000
     24 S         -29.6140   12.3680  -77.3570 S.O2    1  LIG11       2.5490
     25 O         -30.3750   13.4550  -77.9040 O.2     1  LIG11      -0.8850
     26 O         -28.8040   12.5730  -76.1780 O.2     1  LIG11      -0.9260
     27 C         -30.5680   10.9410  -77.1590 C.3     1  LIG11      -0.9600
     28 H         -31.6050   11.0620  -77.5260 H       1  LIG11       0.2470
     29 H         -30.6500   10.6170  -76.1070 H       1  LIG11       0.2370
     30 H         -30.1880   10.0600  -77.7040 H       1  LIG11       0.2440
     31 N         -23.5320   14.8110  -79.4710 N.pl3   1  LIG11       0.8480
     32 O         -23.3160   15.2000  -80.6080 O.2     1  LIG11      -0.4750
     33 O         -22.7940   14.9970  -78.5180 O.2     1  LIG11      -0.4690
@<TRIPOS>BOND
     1    18    16    1
     2    20    17    1
     3    16    17   ar
     4    16    14   ar
     5    17    19   ar
     6    15    14    1
     7    14    12   ar
     8    19    21    1
     9    19    11   ar
    10    12    11   ar
    11    12    13    1
    12    11    10    1
    13     8     4    1
    14    32    31    2
    15    10     2    1
    16     4     2   ar
    17     4     5   ar
    18     2     1   ar
    19    31     5    1
    20    31    33    2
    21     5     6   ar
    22     1    22    1
    23     1     3   ar
    24    23    22    1
    25    22    24    1
    26     6     3   ar
    27     6     9    1
    28     3     7    1
    29    25    24    2
    30    30    27    1
    31    28    27    1
    32    24    27    1
    33    24    26    2
    34    27    29    1
@<TRIPOS>MOLECULE
not_4576521
 50 53 0 0 0
SMALL
GASTEIGER

@<TRIPOS>ATOM
      1 S         -28.0050    9.5000  -79.4690 S.3     1  LIG11       0.1370
      2 N         -28.9310   11.9120  -79.9850 N.am    1  LIG11      -0.3200
      3 N         -27.9600   10.5420  -81.8740 N.am    1  LIG11      -0.2680
      4 C         -28.9970   11.7590  -78.5890 C.3     1  LIG11       0.3300
      5 C         -28.5580   10.4820  -78.1370 C.2     1  LIG11      -0.3160
      6 C         -28.3150   10.8120  -80.6580 C.2     1  LIG11       0.2580
      7 C         -29.4730   12.7050  -77.6630 C.2     1  LIG11      -0.3730
      8 C         -28.5890   10.1410  -76.7990 C.2     1  LIG11       0.1420
      9 C         -29.0610   11.0930  -75.8790 C.3     1  LIG11      -0.6920
     10 C         -29.4970   12.3550  -76.3140 C.2     1  LIG11       0.1380
     11 H         -29.8120   13.6850  -77.9860 H       1  LIG11       0.1840
     12 H         -28.2590    9.1520  -76.4600 H       1  LIG11       0.1640
     13 H         -29.8710   13.0820  -75.5800 H       1  LIG11       0.1580
     14 N         -28.2020   11.4190  -82.9050 N.am    1  LIG11      -0.2990
     15 C         -27.7240   11.0520  -84.0660 C.2     1  LIG11       0.2600
     16 N         -27.8840   11.8300  -85.2450 N.am    1  LIG11      -0.2930
     17 S         -26.7130    9.6130  -84.4220 S.3     1  LIG11       0.1000
     18 C         -27.3140   11.2380  -86.3890 C.3     1  LIG11       0.3170
     19 C         -27.3570   11.7460  -87.6980 C.2     1  LIG11      -0.3630
     20 C         -26.5890   10.0430  -86.1120 C.2     1  LIG11      -0.2970
     21 C         -26.6590   11.0650  -88.6930 C.2     1  LIG11       0.1320
     22 H         -27.9150   12.6500  -87.9320 H       1  LIG11       0.1840
     23 H         -26.6840   11.4500  -89.7220 H       1  LIG11       0.1580
     24 C         -25.9350    9.8960  -88.4090 C.3     1  LIG11      -0.6820
     25 C         -25.9010    9.3730  -87.1050 C.2     1  LIG11       0.1310
     26 H         -25.3450    8.4520  -86.8870 H       1  LIG11       0.1670
     27 C         -28.8990   12.9190  -85.3240 C.3     1  LIG11      -0.0390
     28 H         -29.7430   12.6530  -84.6470 H       1  LIG11       0.1390
     29 H         -29.3080   12.9350  -86.3630 H       1  LIG11       0.1580
     30 C         -28.3080   14.2750  -84.9620 C.3     1  LIG11      -0.5110
     31 H         -29.0900   14.9710  -84.6320 H       1  LIG11       0.1660
     32 H         -27.5670   14.2070  -84.1550 H       1  LIG11       0.1670
     33 H         -27.8050   14.7400  -85.8240 H       1  LIG11       0.1770
     34 S         -25.0770    9.1060  -89.6580 S.O2    1  LIG11       2.4950
     35 O         -25.9730    8.4410  -90.5640 O.2     1  LIG11      -0.8960
     36 O         -23.8920    8.4480  -89.1690 O.2     1  LIG11      -0.9200
     37 O         -24.4710   10.4410  -90.4960 O.3     1  LIG11      -0.8100
     38 H         -24.9870   10.7360  -91.2610 H       1  LIG11       0.3490
     39 C         -29.1410   13.2290  -80.6470 C.3     1  LIG11      -0.0440
     40 H         -29.9820   13.7490  -80.1350 H       1  LIG11       0.1370
     41 H         -29.4770   13.0430  -81.6970 H       1  LIG11       0.1680
     42 C         -27.8780   14.0820  -80.6250 C.3     1  LIG11      -0.5080
     43 H         -28.0240   15.0530  -81.1150 H       1  LIG11       0.1650
     44 H         -27.0510   13.5750  -81.1370 H       1  LIG11       0.1630
     45 H         -27.5440   14.2860  -79.5970 H       1  LIG11       0.1740
     46 S         -29.0850   10.7180  -74.2140 S.O2    1  LIG11       2.4970
     47 O         -28.9840   11.9060  -73.4090 O.2     1  LIG11      -0.8990
     48 O         -30.0460    9.6910  -73.8960 O.2     1  LIG11      -0.9190
     49 O         -27.5990    9.9240  -74.0650 O.3     1  LIG11      -0.8110
     50 H         -26.8100   10.4570  -74.2300 H       1  LIG11       0.3480
@<TRIPOS>BOND
     1    38    37    1
     2    35    34    2
     3    37    34    1
     4    23    21    1
     5    34    36    2
     6    34    24    1
     7    21    24    1
     8    21    19    2
     9    24    25    1
    10    22    19    1
    11    19    18    1
    12    25    26    1
    13    25    20    2
    14    18    20    1
    15    18    16    1
    16    29    27    1
    17    20    17    1
    18    33    30    1
    19    27    16    1
    20    27    30    1
    21    27    28    1
    22    16    15    1
    23    30    31    1
    24    30    32    1
    25    17    15    2
    26    15    14    1
    27    14     3    1
    28     3     6    1
    29    41    39    1
    30    44    42    1
    31    43    42    1
    32     6     2    1
    33     6     1    2
    34    39    42    1
    35    39    40    1
    36    39     2    1
    37    42    45    1
    38     2     4    1
    39     1     5    1
    40     4     5    1
    41     4     7    1
    42     5     8    2
    43    11     7    1
    44     7    10    2
    45     8    12    1
    46     8     9    1
    47    10     9    1
    48    10    13    1
    49     9    46    1
    50    50    49    1
    51    46    49    1
    52    46    48    2
    53    46    47    2
@<TRIPOS>MOLECULE
not_4911
 36 38 0 0 0
SMALL
GASTEIGER

@<TRIPOS>ATOM
      1 O         -25.9780   11.5300  -87.5050 O.3     1  LIG11      -0.4190
      2 O         -27.4240   10.3200  -88.7210 O.2     1  LIG11      -0.4230
      3 C         -27.3900   12.0650  -85.6920 C.2     1  LIG11      -0.0200
      4 C         -28.1260   11.3460  -86.5680 C.2     1  LIG11      -0.1780
      5 C         -25.9830   12.2370  -86.2270 C.3     1  LIG11      -0.0460
      6 C         -27.2490   10.9680  -87.7320 C.2     1  LIG11       0.6160
      7 H         -25.2050   11.7570  -85.6080 H       1  LIG11       0.1690
      8 H         -25.7090   13.2810  -86.4550 H       1  LIG11       0.1640
      9 C         -27.7640   12.6150  -84.3880 C.ar    1  LIG11       0.0960
     10 C         -27.7870   14.0070  -84.1990 C.ar    1  LIG11      -0.2250
     11 H         -27.5190   14.6730  -85.0230 H       1  LIG11       0.1770
     12 C         -28.1530   14.5340  -82.9590 C.ar    1  LIG11       0.0260
     13 H         -28.1950   15.6220  -82.8200 H       1  LIG11       0.1650
     14 C         -28.4820   13.6800  -81.9050 C.ar    1  LIG11      -0.6010
     15 C         -28.4810   12.2960  -82.0950 C.ar    1  LIG11       0.0280
     16 C         -28.1180   11.7580  -83.3310 C.ar    1  LIG11      -0.2470
     17 H         -28.7800   11.6270  -81.2790 H       1  LIG11       0.1610
     18 H         -28.1080   10.6780  -83.4700 H       1  LIG11       0.1660
     19 S         -28.9390   14.3440  -80.3570 S.O2    1  LIG11       2.4820
     20 O         -28.2480   15.6080  -80.1890 O.2     1  LIG11      -0.9420
     21 O         -30.3860   14.2870  -80.2540 O.2     1  LIG11      -0.9430
     22 C         -28.2710   13.1990  -79.2060 C.3     1  LIG11      -0.9810
     23 H         -28.7020   12.1920  -79.3250 H       1  LIG11       0.2330
     24 H         -28.4250   13.4640  -78.1540 H       1  LIG11       0.2190
     25 H         -27.1850   13.0670  -79.3310 H       1  LIG11       0.2320
     26 C         -29.5300   10.9450  -86.5240 C.ar    1  LIG11       0.0340
     27 C         -30.5220   11.7920  -87.0480 C.ar    1  LIG11      -0.1440
     28 H         -30.2440   12.7600  -87.4740 H       1  LIG11       0.1690
     29 C         -31.8630   11.4070  -87.0090 C.ar    1  LIG11      -0.1360
     30 H         -32.6280   12.0670  -87.4180 H       1  LIG11       0.1530
     31 C         -32.2270   10.1810  -86.4400 C.ar    1  LIG11      -0.1340
     32 C         -31.2440    9.3410  -85.9070 C.ar    1  LIG11      -0.1430
     33 H         -33.2740    9.8850  -86.4080 H       1  LIG11       0.1490
     34 C         -29.9000    9.7170  -85.9480 C.ar    1  LIG11      -0.1570
     35 H         -31.5270    8.3930  -85.4530 H       1  LIG11       0.1470
     36 H         -29.1390    9.0620  -85.5230 H       1  LIG11       0.1530
@<TRIPOS>BOND
     1     2     6    2
     2     6     1    1
     3     6     4    1
     4     1     5    1
     5    28    27    1
     6    30    29    1
     7    27    29   ar
     8    27    26   ar
     9    29    31   ar
    10     4    26    1
    11     4     3    2
    12    26    34   ar
    13     8     5    1
    14    31    33    1
    15    31    32   ar
    16     5     3    1
    17     5     7    1
    18    34    32   ar
    19    34    36    1
    20    32    35    1
    21     3     9    1
    22    11    10    1
    23     9    10   ar
    24     9    16   ar
    25    10    12   ar
    26    18    16    1
    27    16    15   ar
    28    12    13    1
    29    12    14   ar
    30    15    14   ar
    31    15    17    1
    32    14    19    1
    33    19    21    2
    34    19    20    2
    35    19    22    1
    36    25    22    1
    37    23    22    1
    38    22    24    1
@<TRIPOS>MOLECULE
not_5304
 36 36 0 0 0
SMALL
GASTEIGER

@<TRIPOS>ATOM
      1 O         -26.2370   19.3990  -78.1410 O.2     1  LIG11      -0.5510
      2 N         -26.4450   21.4950  -79.1360 N.am    1  LIG11      -0.5340
      3 N         -24.8630   21.0480  -77.3660 N.am    1  LIG11      -0.9380
      4 C         -25.8650   20.5550  -78.2550 C.2     1  LIG11       0.7140
      5 H         -25.8560   22.2850  -79.4680 H       1  LIG11       0.3060
      6 H         -24.4500   20.2980  -76.7810 H       1  LIG11       0.3210
      7 S         -24.2500   22.6580  -77.2340 S.O2    1  LIG11       2.5460
      8 O         -22.8180   22.5000  -77.1340 O.2     1  LIG11      -0.9130
      9 O         -24.8410   23.3880  -78.3440 O.2     1  LIG11      -0.9420
     10 C         -24.8790   23.2320  -75.7480 C.ar    1  LIG11      -0.6700
     11 C         -24.0360   23.3350  -74.6320 C.ar    1  LIG11       0.0820
     12 H         -22.9800   23.0480  -74.7150 H       1  LIG11       0.1570
     13 C         -24.5320   23.8050  -73.4180 C.ar    1  LIG11      -0.3240
     14 H         -23.8720   23.8810  -72.5550 H       1  LIG11       0.1730
     15 C         -25.8830   24.1830  -73.3060 C.ar    1  LIG11       0.2570
     16 C         -26.7240   24.0820  -74.4270 C.ar    1  LIG11      -0.3220
     17 C         -26.2220   23.6090  -75.6380 C.ar    1  LIG11       0.0940
     18 H         -27.7710   24.3720  -74.3520 H       1  LIG11       0.1730
     19 H         -26.8900   23.5380  -76.5060 H       1  LIG11       0.1530
     20 C         -26.4070   24.6940  -72.0070 C.3     1  LIG11      -0.5340
     21 H         -26.4890   25.7910  -72.0000 H       1  LIG11       0.1790
     22 H         -25.7790   24.4140  -71.1500 H       1  LIG11       0.1750
     23 H         -27.4150   24.2980  -71.8050 H       1  LIG11       0.1830
     24 C         -27.3500   20.9490  -80.1860 C.3     1  LIG11      -0.0900
     25 H         -27.1070   21.4260  -81.1660 H       1  LIG11       0.1610
     26 H         -27.1130   19.8660  -80.2820 H       1  LIG11       0.1380
     27 C         -28.8330   21.1570  -79.8450 C.3     1  LIG11      -0.3200
     28 H         -28.9570   22.0990  -79.2720 H       1  LIG11       0.1540
     29 H         -29.1950   20.3520  -79.1770 H       1  LIG11       0.1450
     30 C         -29.6900   21.2030  -81.1160 C.3     1  LIG11      -0.2100
     31 H         -29.0470   21.0550  -82.0070 H       1  LIG11       0.1300
     32 H         -30.4120   20.3630  -81.1150 H       1  LIG11       0.1250
     33 C         -30.4420   22.5260  -81.2390 C.3     1  LIG11      -0.4640
     34 H         -29.7540   23.3750  -81.3240 H       1  LIG11       0.1510
     35 H         -31.0850   22.5350  -82.1250 H       1  LIG11       0.1460
     36 H         -31.0810   22.7100  -80.3670 H       1  LIG11       0.1480
@<TRIPOS>BOND
     1    35    33    1
     2    31    30    1
     3    34    33    1
     4    33    30    1
     5    33    36    1
     6    25    24    1
     7    30    32    1
     8    30    27    1
     9    26    24    1
    10    24    27    1
    11    24     2    1
    12    27    28    1
    13    27    29    1
    14     5     2    1
    15     2     4   am
    16     9     7    2
    17     4     1    2
    18     4     3   am
    19     3     7    1
    20     3     6    1
    21     7     8    2
    22     7    10    1
    23    19    17    1
    24    10    17   ar
    25    10    11   ar
    26    17    16   ar
    27    12    11    1
    28    11    13   ar
    29    16    18    1
    30    16    15   ar
    31    13    15   ar
    32    13    14    1
    33    15    20    1
    34    20    21    1
    35    20    23    1
    36    20    22    1
@<TRIPOS>MOLECULE
not_5611
 26 26 0 0 0
SMALL
GASTEIGER

@<TRIPOS>ATOM
      1 C         -25.1560   22.8830  -76.1060 C.ar    1  LIG11      -0.0350
      2 C         -26.1440   23.4990  -75.3160 C.ar    1  LIG11      -0.2880
      3 C         -23.9550   22.4730  -75.5270 C.ar    1  LIG11      -0.1550
      4 C         -25.9080   23.7160  -73.9620 C.ar    1  LIG11       0.2160
      5 C         -23.7070   22.6840  -74.1620 C.ar    1  LIG11      -0.2610
      6 C         -24.6750   23.3060  -73.3770 C.ar    1  LIG11       0.1980
      7 H         -27.0970   23.7810  -75.7670 H       1  LIG11       0.1800
      8 H         -23.1910   21.9800  -76.1280 H       1  LIG11       0.1520
      9 H         -22.7650   22.3630  -73.7250 H       1  LIG11       0.1640
     10 C         -25.4230   22.6280  -77.5750 C.3     1  LIG11       0.1170
     11 H         -26.5250   22.6130  -77.7670 H       1  LIG11       0.1540
     12 O         -25.0080   23.7360  -78.3870 O.3     1  LIG11      -0.5540
     13 H         -24.0540   23.6700  -78.6060 H       1  LIG11       0.3110
     14 C         -24.7320   21.3420  -78.0890 C.3     1  LIG11      -0.2260
     15 H         -24.2030   20.8280  -77.2580 H       1  LIG11       0.1540
     16 H         -23.9420   21.6080  -78.8280 H       1  LIG11       0.1580
     17 N         -25.6490   20.3910  -78.7680 N.3     1  LIG11      -0.3730
     18 H         -25.3010   20.2180  -79.7220 H       1  LIG11       0.2230
     19 C         -27.0500   20.8910  -78.8460 C.3     1  LIG11      -0.3420
     20 H         -27.4570   21.2930  -77.9070 H       1  LIG11       0.1250
     21 H         -27.7150   20.0850  -79.1950 H       1  LIG11       0.1510
     22 H         -27.0880   21.6910  -79.6060 H       1  LIG11       0.1550
     23 O         -26.8070   24.3150  -73.1180 O.3     1  LIG11      -0.4320
     24 H         -26.7970   25.3010  -73.2240 H       1  LIG11       0.3200
     25 O         -24.5280   23.5550  -72.0370 O.3     1  LIG11      -0.4310
     26 H         -24.0000   22.8410  -71.5970 H       1  LIG11       0.3190
@<TRIPOS>BOND
     1    18    17    1
     2    22    19    1
     3    21    19    1
     4    19    17    1
     5    19    20    1
     6    16    14    1
     7    17    14    1
     8    13    12    1
     9    12    10    1
    10    14    10    1
    11    14    15    1
    12    11    10    1
    13    10     1    1
    14     8     3    1
    15     1     3   ar
    16     1     2   ar
    17     7     2    1
    18     3     5   ar
    19     2     4   ar
    20     5     9    1
    21     5     6   ar
    22     4     6   ar
    23     4    23    1
    24     6    25    1
    25    24    23    1
    26    25    26    1
@<TRIPOS>MOLECULE
not_5653
 14 13 0 0 0
SMALL
GASTEIGER

@<TRIPOS>ATOM
      1 CA        -37.2430   18.2960  -64.5390 C.3     1  CYS11      -0.1060
      2 HA        -37.4850   17.4640  -65.2640 H       1  CYS11       0.1830
      3 C         -37.5510   17.7370  -63.1320 C.2     1  CYS11       0.6130
      4 O         -38.3080   18.2410  -62.3410 O.2     1  CYS11      -0.4650
      5 OXT       -36.8790   16.6140  -62.7540 O.3     1  CYS11      -0.4940
      6 HXT       -37.4710   15.8150  -62.6000 H       1  CYS11       0.3600
      7 CB        -35.7570   18.6400  -64.6220 C.3     1  CYS11      -0.3470
      8 HB2       -35.5890   19.6530  -65.0340 H       1  CYS11       0.1740
      9 HB1       -35.3020   18.6410  -63.6070 H       1  CYS11       0.1940
     10 SG        -35.0020   17.3730  -65.6840 S.3     1  CYS11      -0.2370
     11 HG        -36.0880   16.6070  -65.9200 H       1  CYS11       0.1950
     12 N         -38.1690   19.4300  -64.7840 N.3     1  CYS11      -0.5320
     13 H1        -39.1410   19.1470  -64.6680 H       1  CYS11       0.2280
     14 H2        -37.9990   20.1900  -64.1270 H       1  CYS11       0.2360
@<TRIPOS>BOND
     1    11    10    1
     2    10     7    1
     3     2     1    1
     4     8     7    1
     5    12    13    1
     6    12     1    1
     7    12    14    1
     8     7     1    1
     9     7     9    1
    10     1     3    1
    11     3     5    1
    12     3     4    2
    13     5     6    1
@<TRIPOS>MOLECULE
not_5764
 24 23 0 0 0
SMALL
GASTEIGER

@<TRIPOS>ATOM
      1 C         -26.9170   23.3750  -75.0760 C.3     1  LIG11       0.0540
      2 H         -27.6550   22.8490  -74.4250 H       1  LIG11       0.1460
      3 C         -26.1300   22.3680  -75.9540 C.3     1  LIG11      -0.0450
      4 H         -26.8270   21.7530  -76.5850 H       1  LIG11       0.1940
      5 C         -25.1220   23.0830  -76.8600 C.2     1  LIG11       0.4170
      6 O         -25.5070   23.9120  -77.6500 O.2     1  LIG11      -0.4250
      7 C         -23.6320   22.7820  -76.7440 C.3     1  LIG11      -0.1490
      8 H         -23.0390   23.6420  -77.1310 H       1  LIG11       0.1920
      9 H         -23.3660   21.8850  -77.3400 H       1  LIG11       0.1690
     10 O         -23.1750   22.6360  -75.4010 O.3     1  LIG11      -0.5160
     11 H         -23.2920   23.4900  -74.9100 H       1  LIG11       0.3270
     12 O         -25.5560   21.3960  -75.0930 O.3     1  LIG11      -0.5440
     13 H         -24.8870   20.8290  -75.5900 H       1  LIG11       0.3420
     14 C         -26.0000   24.2740  -74.2150 C.3     1  LIG11       0.0660
     15 H         -25.2160   24.7810  -74.8400 H       1  LIG11       0.1860
     16 O         -25.2110   23.4390  -73.3650 O.3     1  LIG11      -0.5440
     17 H         -25.7650   23.0260  -72.6650 H       1  LIG11       0.3170
     18 C         -26.7900   25.2990  -73.3850 C.3     1  LIG11      -0.0450
     19 H         -27.7500   24.8920  -73.0160 H       1  LIG11       0.1610
     20 H         -26.2040   25.6710  -72.5240 H       1  LIG11       0.1370
     21 O         -27.1870   26.3960  -74.2110 O.3     1  LIG11      -0.5360
     22 H         -27.2230   26.1140  -75.1540 H       1  LIG11       0.3160
     23 O         -27.6640   24.2440  -75.9330 O.3     1  LIG11      -0.5600
     24 H         -28.6120   23.9460  -75.9900 H       1  LIG11       0.3390
@<TRIPOS>BOND
     1     6     5    2
     2     9     7    1
     3     8     7    1
     4     5     7    1
     5     5     3    1
     6     7    10    1
     7     4     3    1
     8    24    23    1
     9     3    12    1
    10     3     1    1
    11    23     1    1
    12    13    12    1
    13    10    11    1
    14    22    21    1
    15     1     2    1
    16     1    14    1
    17    15    14    1
    18    14    18    1
    19    14    16    1
    20    21    18    1
    21    18    19    1
    22    18    20    1
    23    16    17    1
@<TRIPOS>MOLECULE
not_5768
 45 46 0 0 0
SMALL
GASTEIGER

@<TRIPOS>ATOM
      1 O         -19.3800   24.8650  -86.9180 O.3     1  LIG11      -0.5280
      2 C         -18.0070   25.0320  -86.5780 C.3     1  LIG11       0.3410
      3 O         -18.0580   24.7860  -85.1520 O.3     1  LIG11      -0.5010
      4 C         -16.8070   24.5240  -84.4960 C.3     1  LIG11       0.0620
      5 C         -15.9840   23.4180  -85.2010 C.3     1  LIG11       0.0870
      6 H         -17.1780   24.1490  -83.5080 H       1  LIG11       0.1680
      7 H         -14.9600   23.3460  -84.7590 H       1  LIG11       0.1630
      8 C         -15.8950   23.6170  -86.7320 C.3     1  LIG11       0.0670
      9 H         -15.4450   22.7170  -87.2100 H       1  LIG11       0.1550
     10 C         -17.2800   23.9090  -87.3500 C.3     1  LIG11       0.0170
     11 H         -17.2120   24.1750  -88.4310 H       1  LIG11       0.1560
     12 H         -17.6250   26.0530  -86.7700 H       1  LIG11       0.1510
     13 C         -15.9830   25.8140  -84.3420 C.3     1  LIG11      -0.0650
     14 H         -15.0320   25.6400  -83.8070 H       1  LIG11       0.1360
     15 H         -15.7540   26.2790  -85.3220 H       1  LIG11       0.1720
     16 O         -16.7330   26.8240  -83.6580 O.3     1  LIG11      -0.5470
     17 H         -17.5180   27.0820  -84.1840 H       1  LIG11       0.3100
     18 O         -16.5490   22.1460  -84.9270 O.3     1  LIG11      -0.5380
     19 H         -16.0460   21.4310  -85.4240 H       1  LIG11       0.3450
     20 O         -15.0600   24.7670  -86.9190 O.3     1  LIG11      -0.5600
     21 H         -15.5870   25.5910  -86.8730 H       1  LIG11       0.3250
     22 O         -17.9820   22.6610  -87.2510 O.3     1  LIG11      -0.5480
     23 H         -17.9270   22.3220  -86.3150 H       1  LIG11       0.3450
     24 C         -20.0420   25.8640  -87.7280 C.3     1  LIG11       0.3960
     25 O         -19.2970   27.0750  -87.7150 O.3     1  LIG11      -0.4940
     26 C         -19.9700   28.1120  -86.9280 C.3     1  LIG11       0.0880
     27 C         -21.3850   27.5900  -86.6000 C.3     1  LIG11       0.0510
     28 H         -19.9950   28.9910  -87.6100 H       1  LIG11       0.1640
     29 H         -21.6610   27.7230  -85.5310 H       1  LIG11       0.1690
     30 C         -21.4160   26.1000  -87.0330 C.3     1  LIG11       0.0620
     31 H         -22.2940   25.8930  -87.6900 H       1  LIG11       0.1850
     32 C         -19.1110   28.3590  -85.6870 C.3     1  LIG11      -0.0640
     33 H         -18.0210   28.2450  -85.8820 H       1  LIG11       0.1710
     34 H         -19.2880   29.3560  -85.2480 H       1  LIG11       0.1410
     35 O         -19.5400   27.3360  -84.7660 O.3     1  LIG11      -0.5630
     36 H         -20.2310   26.7900  -85.1960 H       1  LIG11       0.3220
     37 O         -22.3350   28.2420  -87.4480 O.3     1  LIG11      -0.5470
     38 H         -22.0190   29.1430  -87.6790 H       1  LIG11       0.3250
     39 O         -21.5970   25.2500  -85.9250 O.3     1  LIG11      -0.5190
     40 H         -21.1830   25.6490  -85.1000 H       1  LIG11       0.3450
     41 C         -20.0410   25.3610  -89.1820 C.3     1  LIG11      -0.0690
     42 H         -20.9370   25.7120  -89.7330 H       1  LIG11       0.1760
     43 H         -19.1180   25.6720  -89.7080 H       1  LIG11       0.1470
     44 O         -20.1550   23.9410  -89.2160 O.3     1  LIG11      -0.5220
     45 H         -19.9500   23.5680  -88.3210 H       1  LIG11       0.3250
@<TRIPOS>BOND
     1    42    41    1
     2    43    41    1
     3    44    41    1
     4    44    45    1
     5    41    24    1
     6    11    10    1
     7    24    25    1
     8    24    30    1
     9    24     1    1
    10    25    26    1
    11    31    30    1
    12    38    37    1
    13    28    26    1
    14    37    27    1
    15    10    22    1
    16    10     8    1
    17    10     2    1
    18    22    23    1
    19     9     8    1
    20    30    27    1
    21    30    39    1
    22    26    27    1
    23    26    32    1
    24    20    21    1
    25    20     8    1
    26     1     2    1
    27    12     2    1
    28     8     5    1
    29    27    29    1
    30     2     3    1
    31    39    40    1
    32    33    32    1
    33    32    34    1
    34    32    35    1
    35    19    18    1
    36    15    13    1
    37     5    18    1
    38     5     7    1
    39     5     4    1
    40    36    35    1
    41     3     4    1
    42     4    13    1
    43     4     6    1
    44    13    14    1
    45    13    16    1
    46    17    16    1
@<TRIPOS>MOLECULE
not_6170
 16 15 0 0 0
SMALL
GASTEIGER

@<TRIPOS>ATOM
      1 C         -24.6810   23.0980  -74.2990 C.3     1  LIG11       0.4480
      2 C         -23.7420   23.0160  -75.4990 C.3     1  LIG11      -0.5650
      3 H         -23.9910   23.7780  -76.2480 H       1  LIG11       0.1710
      4 H         -22.6970   23.1480  -75.2110 H       1  LIG11       0.1620
      5 H         -23.8390   22.0440  -75.9990 H       1  LIG11       0.1780
      6 C         -25.9570   23.8940  -74.5930 C.3     1  LIG11      -0.5570
      7 H         -26.3780   24.3250  -73.6760 H       1  LIG11       0.1730
      8 H         -26.7190   23.2530  -75.0470 H       1  LIG11       0.1720
      9 H         -25.7600   24.7260  -75.2800 H       1  LIG11       0.1730
     10 O         -25.2890   21.7800  -74.0590 O.3     1  LIG11      -0.2690
     11 O         -25.4950   21.1840  -75.3470 O.3     1  LIG11      -0.3240
     12 H         -24.9010   21.8030  -75.8620 H       1  LIG11       0.2920
     13 C         -23.9670   23.5680  -73.0360 C.3     1  LIG11      -0.5650
     14 H         -23.4840   24.5420  -73.2050 H       1  LIG11       0.1780
     15 H         -24.6520   23.6720  -72.1920 H       1  LIG11       0.1620
     16 H         -23.1690   22.8720  -72.7490 H       1  LIG11       0.1710
@<TRIPOS>BOND
     1     3     2    1
     2     5     2    1
     3    12    11    1
     4     2     4    1
     5     2     1    1
     6    11    10    1
     7     9     6    1
     8     8     6    1
     9     6     1    1
    10     6     7    1
    11     1    10    1
    12     1    13    1
    13    14    13    1
    14    13    16    1
    15    13    15    1
@<TRIPOS>MOLECULE
not_6257
 19 18 0 0 0
SMALL
GASTEIGER

@<TRIPOS>ATOM
      1 C         -14.7250   13.2430  -72.3250 C.3     1  LIG11       0.0880
      2 N         -15.2900   14.4070  -71.5830 N.3     1  LIG11      -0.5410
      3 H         -14.6870   15.2200  -71.6880 H       1  LIG11       0.2150
      4 H         -16.1940   14.6660  -71.9860 H       1  LIG11       0.2330
      5 C         -13.5680   12.6260  -71.5000 C.3     1  LIG11      -0.0340
      6 H         -13.6330   11.5210  -71.4970 H       1  LIG11       0.1490
      7 H         -12.5810   12.9330  -71.8890 H       1  LIG11       0.1500
      8 O         -13.5770   13.1380  -70.1620 O.3     1  LIG11      -0.5480
      9 H         -13.6080   12.4020  -69.5170 H       1  LIG11       0.3110
     10 C         -15.8560   12.1930  -72.4880 C.3     1  LIG11      -0.0250
     11 H         -16.8470   12.6850  -72.5270 H       1  LIG11       0.1390
     12 H         -15.7210   11.5680  -73.3890 H       1  LIG11       0.1450
     13 O         -15.8300   11.2430  -71.4210 O.3     1  LIG11      -0.5460
     14 H         -16.4460   10.4990  -71.6220 H       1  LIG11       0.3260
     15 C         -14.1910   13.6510  -73.7220 C.3     1  LIG11      -0.0820
     16 H         -13.8550   14.7040  -73.7300 H       1  LIG11       0.1420
     17 H         -13.3710   13.0000  -74.0660 H       1  LIG11       0.1280
     18 O         -15.3250   13.5040  -74.5990 O.3     1  LIG11      -0.5650
     19 H         -15.3310   14.2190  -75.2640 H       1  LIG11       0.3150
@<TRIPOS>BOND
     1    19    18    1
     2    18    15    1
     3    17    15    1
     4    16    15    1
     5    15     1    1
     6    12    10    1
     7    11    10    1
     8    10     1    1
     9    10    13    1
    10     1     2    1
    11     1     5    1
    12     4     2    1
    13     7     5    1
    14     3     2    1
    15    14    13    1
    16     5     6    1
    17     5     8    1
    18     8     9    1
@<TRIPOS>MOLECULE
not_6312
 15 14 0 0 0
SMALL
GASTEIGER

@<TRIPOS>ATOM
      1 C         -36.3280   18.2860  -63.9960 C.3     1  LIG11      -0.0010
      2 H         -35.7670   18.4230  -63.0350 H       1  LIG11       0.1370
      3 C         -35.9290   19.3940  -64.9740 C.3     1  LIG11      -0.5030
      4 H         -36.6860   20.1840  -65.0250 H       1  LIG11       0.1510
      5 H         -34.9880   19.8650  -64.6660 H       1  LIG11       0.1570
      6 H         -35.7770   19.0100  -65.9890 H       1  LIG11       0.1520
      7 C         -37.8290   18.3900  -63.6590 C.3     1  LIG11      -0.0320
      8 H         -38.1940   19.4300  -63.7280 H       1  LIG11       0.1150
      9 H         -38.4550   17.7330  -64.2820 H       1  LIG11       0.1110
     10 O         -37.9210   17.9870  -62.2750 O.3     1  LIG11      -0.5600
     11 H         -38.1510   17.0440  -62.2140 H       1  LIG11       0.3030
     12 C         -35.9930   16.9020  -64.5570 C.3     1  LIG11      -0.4900
     13 H         -35.4410   16.3000  -63.8280 H       1  LIG11       0.1490
     14 H         -36.9170   16.3600  -64.8030 H       1  LIG11       0.1640
     15 H         -35.3870   16.9580  -65.4660 H       1  LIG11       0.1470
@<TRIPOS>BOND
     1     6     3    1
     2    15    12    1
     3     4     3    1
     4     3     5    1
     5     3     1    1
     6    14    12    1
     7    12     1    1
     8    12    13    1
     9     9     7    1
    10     1     7    1
    11     1     2    1
    12     8     7    1
    13     7    10    1
    14    10    11    1
@<TRIPOS>MOLECULE
not_682
 9 8 0 0 0
SMALL
GASTEIGER

@<TRIPOS>ATOM
      1 C         -37.9130   18.3230  -63.4950 C.3     1  LIG11       0.0510
      2 H         -37.9160   19.4230  -63.5890 H       1  LIG11       0.1030
      3 H         -38.7950   17.9000  -64.0080 H       1  LIG11       0.1030
      4 O         -37.9840   17.9790  -62.0930 O.3     1  LIG11      -0.5620
      5 H         -37.3650   18.5270  -61.5790 H       1  LIG11       0.3020
      6 C         -36.6130   17.7070  -63.9810 C.3     1  LIG11      -0.4910
      7 H         -35.7620   18.3680  -63.7690 H       1  LIG11       0.1700
      8 H         -36.4230   16.7380  -63.5100 H       1  LIG11       0.1540
      9 H         -36.6290   17.5660  -65.0710 H       1  LIG11       0.1700
@<TRIPOS>BOND
     1     9     6    1
     2     3     1    1
     3     6     7    1
     4     6     8    1
     5     6     1    1
     6     2     1    1
     7     1     4    1
     8     4     5    1
@<TRIPOS>MOLECULE
not_733
 14 13 0 0 0
SMALL
GASTEIGER

@<TRIPOS>ATOM
      1 C         -36.3880   17.6490  -63.7090 C.3     1  LIG11       0.0560
      2 H         -35.6500   18.2950  -63.1850 H       1  LIG11       0.1410
      3 C         -36.0460   17.4980  -65.2040 C.3     1  LIG11      -0.0590
      4 H         -35.1710   18.1040  -65.5010 H       1  LIG11       0.1550
      5 H         -36.9060   17.7320  -65.8570 H       1  LIG11       0.1310
      6 O         -35.6260   16.1510  -65.4430 O.3     1  LIG11      -0.5320
      7 H         -36.3100   15.6910  -65.9860 H       1  LIG11       0.3170
      8 C         -37.8240   18.1390  -63.4720 C.3     1  LIG11      -0.0410
      9 H         -37.9480   19.2130  -63.7050 H       1  LIG11       0.1540
     10 H         -38.5510   17.5360  -64.0470 H       1  LIG11       0.1410
     11 O         -38.1330   18.0680  -62.0780 O.3     1  LIG11      -0.5310
     12 H         -38.1350   18.9750  -61.6950 H       1  LIG11       0.3160
     13 O         -36.3440   16.3210  -63.1400 O.3     1  LIG11      -0.5650
     14 H         -35.4410   15.9540  -63.2240 H       1  LIG11       0.3180
@<TRIPOS>BOND
     1     7     6    1
     2     5     3    1
     3     4     3    1
     4     6     3    1
     5     3     1    1
     6    10     8    1
     7     1     8    1
     8     1     2    1
     9     1    13    1
    10     9     8    1
    11     8    11    1
    12    14    13    1
    13    11    12    1
@<TRIPOS>MOLECULE
not_73505
 33 32 0 0 0
SMALL
GASTEIGER

@<TRIPOS>ATOM
      1 N         -25.3480   23.3810  -74.9560 N.3     1  LIG11      -0.3780
      2 C         -25.0360   22.8600  -76.3270 C.3     1  LIG11       0.0500
      3 C         -25.8110   23.7040  -77.3770 C.3     1  LIG11      -0.0290
      4 H         -25.9280   24.7520  -77.0280 H       1  LIG11       0.1690
      5 H         -26.8110   23.2830  -77.5930 H       1  LIG11       0.1240
      6 O         -25.0780   23.8290  -78.5980 O.3     1  LIG11      -0.5490
      7 H         -25.0840   22.9740  -79.0820 H       1  LIG11       0.3200
      8 C         -25.5410   21.3890  -76.4040 C.3     1  LIG11      -0.0260
      9 H         -26.3720   21.2180  -75.6950 H       1  LIG11       0.1400
     10 H         -24.7340   20.6520  -76.2280 H       1  LIG11       0.1500
     11 O         -25.9740   21.0840  -77.7370 O.3     1  LIG11      -0.5480
     12 H         -26.4620   21.8600  -78.1090 H       1  LIG11       0.3270
     13 C         -23.5210   22.9140  -76.6810 C.3     1  LIG11      -0.0590
     14 H         -23.2710   23.7670  -77.3380 H       1  LIG11       0.1470
     15 H         -22.8940   22.9600  -75.7740 H       1  LIG11       0.1260
     16 O         -23.1470   21.7810  -77.4600 O.3     1  LIG11      -0.5540
     17 H         -22.4600   22.0470  -78.1400 H       1  LIG11       0.3380
     18 C         -24.8080   22.5340  -73.8470 C.3     1  LIG11      -0.1990
     19 H         -24.2210   21.6790  -74.2580 H       1  LIG11       0.1470
     20 H         -25.5970   22.0760  -73.2120 H       1  LIG11       0.1410
     21 C         -23.8830   23.4110  -72.9810 C.3     1  LIG11       0.0030
     22 H         -22.8720   22.9820  -72.8840 H       1  LIG11       0.1210
     23 H         -23.8120   24.4480  -73.3610 H       1  LIG11       0.1500
     24 O         -24.4750   23.5810  -71.6900 O.3     1  LIG11      -0.5430
     25 H         -23.8510   23.3260  -70.9820 H       1  LIG11       0.3060
     26 C         -26.7930   23.6970  -74.7340 C.3     1  LIG11      -0.1660
     27 H         -27.3880   23.7480  -75.6720 H       1  LIG11       0.1470
     28 H         -27.3130   22.9320  -74.1120 H       1  LIG11       0.1560
     29 C         -26.8640   25.0530  -74.0110 C.3     1  LIG11       0.0060
     30 H         -27.6470   25.7120  -74.4230 H       1  LIG11       0.1160
     31 H         -25.8940   25.5800  -74.0100 H       1  LIG11       0.1180
     32 O         -27.2150   24.6860  -72.6610 O.3     1  LIG11      -0.5630
     33 H         -26.4180   24.4340  -72.1590 H       1  LIG11       0.3120
@<TRIPOS>BOND
     1     7     6    1
     2     6     3    1
     3    17    16    1
     4    12    11    1
     5    11     8    1
     6     5     3    1
     7    16    13    1
     8     3     4    1
     9     3     2    1
    10    14    13    1
    11    13     2    1
    12    13    15    1
    13     8     2    1
    14     8    10    1
    15     8     9    1
    16     2     1    1
    17    27    26    1
    18     1    26    1
    19     1    18    1
    20    26    28    1
    21    26    29    1
    22    30    29    1
    23    19    18    1
    24    29    31    1
    25    29    32    1
    26    18    20    1
    27    18    21    1
    28    23    21    1
    29    21    22    1
    30    21    24    1
    31    32    33    1
    32    24    25    1
@<TRIPOS>MOLECULE
not_7742
 28 27 0 0 0
SMALL
GASTEIGER

@<TRIPOS>ATOM
      1 O         -26.3100   21.9410  -78.9280 O.3     1  LIG11      -0.2820
      2 C         -27.3670   20.9750  -79.2350 C.3     1  LIG11       0.4490
      3 C         -26.9070   19.5690  -78.8540 C.3     1  LIG11      -0.5650
      4 H         -26.9250   18.8990  -79.7210 H       1  LIG11       0.1680
      5 H         -25.8960   19.5670  -78.4380 H       1  LIG11       0.1590
      6 H         -27.5870   19.1330  -78.1100 H       1  LIG11       0.1770
      7 C         -28.4640   21.5080  -78.3060 C.3     1  LIG11      -0.5560
      8 H         -28.0910   22.3310  -77.6850 H       1  LIG11       0.1710
      9 H         -28.8290   20.7200  -77.6400 H       1  LIG11       0.1690
     10 H         -29.3160   21.8910  -78.8780 H       1  LIG11       0.1710
     11 C         -27.7470   21.0770  -80.7110 C.3     1  LIG11      -0.5650
     12 H         -28.8370   21.1520  -80.8210 H       1  LIG11       0.1770
     13 H         -27.2930   21.9460  -81.1930 H       1  LIG11       0.1590
     14 H         -27.4420   20.1780  -81.2600 H       1  LIG11       0.1680
     15 O         -25.2850   21.1960  -78.2390 O.3     1  LIG11      -0.2820
     16 C         -24.7230   22.1150  -77.2460 C.3     1  LIG11       0.4490
     17 C         -23.1980   22.0130  -77.2510 C.3     1  LIG11      -0.5650
     18 H         -22.8730   20.9860  -77.4510 H       1  LIG11       0.1680
     19 H         -22.7460   22.6690  -77.9970 H       1  LIG11       0.1590
     20 H         -22.7950   22.2800  -76.2650 H       1  LIG11       0.1770
     21 C         -25.2260   23.4420  -77.8270 C.3     1  LIG11      -0.5560
     22 H         -24.5510   24.2670  -77.5720 H       1  LIG11       0.1710
     23 H         -26.2210   23.6860  -77.4410 H       1  LIG11       0.1690
     24 H         -25.2880   23.3970  -78.9210 H       1  LIG11       0.1710
     25 C         -25.3170   21.8130  -75.8710 C.3     1  LIG11      -0.5650
     26 H         -25.0880   22.6270  -75.1700 H       1  LIG11       0.1770
     27 H         -26.4020   21.6900  -75.9110 H       1  LIG11       0.1590
     28 H         -24.8810   20.9030  -75.4440 H       1  LIG11       0.1680
@<TRIPOS>BOND
     1    14    11    1
     2    13    11    1
     3    12    11    1
     4    11     2    1
     5     4     3    1
     6     2     1    1
     7     2     3    1
     8     2     7    1
     9     1    15    1
    10    24    21    1
    11    10     7    1
    12     3     5    1
    13     3     6    1
    14     7     8    1
    15     7     9    1
    16    15    16    1
    17    19    17    1
    18    21    22    1
    19    21    23    1
    20    21    16    1
    21    18    17    1
    22    17    16    1
    23    17    20    1
    24    16    25    1
    25    27    25    1
    26    25    28    1
    27    25    26    1
@<TRIPOS>MOLECULE
not_8082544
 42 44 0 0 0
SMALL
GASTEIGER

@<TRIPOS>ATOM
      1 O         -26.0610   10.1730  -86.9690 O.3     1  LIG11      -0.4700
      2 O         -27.6240    9.4690  -88.4140 O.2     1  LIG11      -0.4250
      3 C         -25.9980   10.8340  -85.6410 C.3     1  LIG11       0.4120
      4 C         -27.4830   11.0430  -85.2930 C.2     1  LIG11      -0.0800
      5 C         -28.2700   10.5400  -86.2670 C.2     1  LIG11      -0.1800
      6 C         -27.3880    9.9830  -87.3590 C.2     1  LIG11       0.6230
      7 C         -27.8640   11.7580  -84.0710 C.ar    1  LIG11       0.1240
      8 C         -28.0210   11.0690  -82.8590 C.ar    1  LIG11      -0.2590
      9 H         -27.9050    9.9870  -82.8220 H       1  LIG11       0.1710
     10 C         -28.3530   11.7770  -81.7000 C.ar    1  LIG11       0.0340
     11 H         -28.4970   11.2370  -80.7550 H       1  LIG11       0.1640
     12 C         -28.5190   13.1630  -81.7460 C.ar    1  LIG11      -0.6090
     13 C         -28.3950   13.8440  -82.9580 C.ar    1  LIG11       0.0320
     14 C         -28.0590   13.1490  -84.1220 C.ar    1  LIG11      -0.2420
     15 H         -28.5750   14.9240  -83.0040 H       1  LIG11       0.1580
     16 H         -27.9650   13.6790  -85.0700 H       1  LIG11       0.1740
     17 S         -28.9380   14.0280  -80.2920 S.O2    1  LIG11       2.4800
     18 O         -30.3830   14.1790  -80.2630 O.2     1  LIG11      -0.9450
     19 O         -28.0860   15.1990  -80.1980 O.2     1  LIG11      -0.9390
     20 C         -28.4820   12.9210  -79.0100 C.3     1  LIG11      -0.9710
     21 H         -27.8390   12.0980  -79.3450 H       1  LIG11       0.2200
     22 H         -29.3600   12.4340  -78.5560 H       1  LIG11       0.2320
     23 H         -27.9630   13.4090  -78.1750 H       1  LIG11       0.2210
     24 C         -29.7270   10.4900  -86.3710 C.ar    1  LIG11       0.1080
     25 C         -30.4210   11.4660  -87.1090 C.ar    1  LIG11      -0.2200
     26 C         -31.8130   11.4130  -87.2260 C.ar    1  LIG11      -0.0640
     27 H         -29.8740   12.2770  -87.5910 H       1  LIG11       0.1660
     28 H         -32.3370   12.1760  -87.8040 H       1  LIG11       0.1520
     29 C         -32.5410   10.3920  -86.6110 C.ar    1  LIG11      -0.2540
     30 H         -33.6260   10.3440  -86.7010 H       1  LIG11       0.1790
     31 C         -31.8280    9.4400  -85.8750 C.ar    1  LIG11       0.2330
     32 F         -32.5110    8.4600  -85.2800 F       1  LIG11      -0.1530
     33 C         -30.4400    9.4620  -85.7300 C.ar    1  LIG11      -0.2680
     34 H         -29.9240    8.7160  -85.1200 H       1  LIG11       0.2000
     35 C         -25.2930    9.8510  -84.7250 C.3     1  LIG11      -0.5490
     36 H         -25.5660   10.0060  -83.6720 H       1  LIG11       0.1800
     37 H         -24.2030    9.9120  -84.8130 H       1  LIG11       0.1740
     38 H         -25.5920    8.8180  -84.9690 H       1  LIG11       0.1910
     39 C         -25.2580   12.1410  -85.8530 C.3     1  LIG11      -0.5470
     40 H         -24.8250   12.2080  -86.8580 H       1  LIG11       0.1740
     41 H         -24.4440   12.2700  -85.1250 H       1  LIG11       0.1810
     42 H         -25.9320   13.0000  -85.7140 H       1  LIG11       0.1880
@<TRIPOS>BOND
     1     2     6    2
     2    28    26    1
     3    27    25    1
     4     6     1    1
     5     6     5    1
     6    26    25   ar
     7    26    29   ar
     8    25    24   ar
     9     1     3    1
    10    40    39    1
    11    30    29    1
    12    29    31   ar
    13    24     5    1
    14    24    33   ar
    15     5     4    2
    16    31    33   ar
    17    31    32    1
    18    39    42    1
    19    39     3    1
    20    39    41    1
    21    33    34    1
    22     3     4    1
    23     3    35    1
    24     4     7    1
    25    16    14    1
    26    38    35    1
    27    37    35    1
    28    35    36    1
    29    14     7   ar
    30    14    13   ar
    31     7     8   ar
    32    15    13    1
    33    13    12   ar
    34     8     9    1
    35     8    10   ar
    36    12    10   ar
    37    12    17    1
    38    10    11    1
    39    17    18    2
    40    17    19    2
    41    17    20    1
    42    21    20    1
    43    20    22    1
    44    20    23    1
@<TRIPOS>MOLECULE
not_8257952
 31 32 0 0 0
SMALL
GASTEIGER

@<TRIPOS>ATOM
      1 C         -27.7660   21.4930  -78.4410 C.ar    1  LIG11      -0.0030
      2 C         -26.9950   22.9690  -76.1790 C.ar    1  LIG11       0.0110
      3 C         -26.4300   21.4830  -78.0120 C.ar    1  LIG11      -0.1590
      4 C         -28.7120   22.2530  -77.7390 C.ar    1  LIG11      -0.1790
      5 C         -26.0460   22.2170  -76.8900 C.ar    1  LIG11      -0.1500
      6 C         -28.3280   22.9880  -76.6150 C.ar    1  LIG11      -0.1500
      7 H         -25.6870   20.8990  -78.5580 H       1  LIG11       0.1610
      8 H         -29.7500   22.2840  -78.0690 H       1  LIG11       0.1530
      9 H         -25.0050   22.2110  -76.5660 H       1  LIG11       0.1600
     10 H         -29.0700   23.5740  -76.0710 H       1  LIG11       0.1580
     11 C         -26.5870   23.7260  -74.9750 C.ar    1  LIG11       0.0060
     12 C         -27.2110   24.9480  -74.6720 C.ar    1  LIG11      -0.1660
     13 H         -27.9900   25.3380  -75.3270 H       1  LIG11       0.1540
     14 C         -26.8290   25.6640  -73.5360 C.ar    1  LIG11      -0.1300
     15 H         -27.3120   26.6120  -73.3040 H       1  LIG11       0.1470
     16 C         -25.8270   25.1670  -72.6960 C.ar    1  LIG11      -0.1510
     17 H         -25.5350   25.7260  -71.8090 H       1  LIG11       0.1480
     18 C         -25.2050   23.9510  -72.9950 C.ar    1  LIG11      -0.1300
     19 C         -25.5820   23.2300  -74.1310 C.ar    1  LIG11      -0.1660
     20 H         -24.4230   23.5650  -72.3430 H       1  LIG11       0.1470
     21 H         -25.1010   22.2790  -74.3570 H       1  LIG11       0.1540
     22 C         -28.1870   20.6900  -79.6490 C.3     1  LIG11      -0.2240
     23 H         -29.2840   20.8460  -79.8480 H       1  LIG11       0.1710
     24 C         -28.0040   19.1930  -79.4100 C.2     1  LIG11       0.6250
     25 O         -26.9880   18.5540  -79.4940 O.2     1  LIG11      -0.4430
     26 O         -29.1500   18.4820  -79.1140 O.3     1  LIG11      -0.5280
     27 H         -29.3710   18.4130  -78.1570 H       1  LIG11       0.3350
     28 C         -27.4130   21.1180  -80.8970 C.3     1  LIG11      -0.4420
     29 H         -26.6840   20.3490  -81.1940 H       1  LIG11       0.1690
     30 H         -28.0900   21.2920  -81.7420 H       1  LIG11       0.1600
     31 H         -26.8470   22.0420  -80.7320 H       1  LIG11       0.1640
@<TRIPOS>BOND
     1    30    28    1
     2    29    28    1
     3    28    31    1
     4    28    22    1
     5    23    22    1
     6    22    24    1
     7    22     1    1
     8    25    24    2
     9    24    26    1
    10    26    27    1
    11     7     3    1
    12     1     3   ar
    13     1     4   ar
    14     8     4    1
    15     3     5   ar
    16     4     6   ar
    17     5     9    1
    18     5     2   ar
    19     6     2   ar
    20     6    10    1
    21     2    11    1
    22    13    12    1
    23    11    12   ar
    24    11    19   ar
    25    12    14   ar
    26    21    19    1
    27    19    18   ar
    28    14    15    1
    29    14    16   ar
    30    18    16   ar
    31    18    20    1
    32    16    17    1
@<TRIPOS>MOLECULE
not_83361
 31 32 0 0 0
SMALL
GASTEIGER

@<TRIPOS>ATOM
      1 F         -24.8110   22.4590  -76.7330 F       1  LIG11      -0.1400
      2 C         -27.7880   21.4920  -78.5270 C.ar    1  LIG11       0.0810
      3 C         -27.0520   23.0430  -76.2770 C.ar    1  LIG11      -0.1080
      4 C         -26.4380   21.5880  -78.1670 C.ar    1  LIG11      -0.2780
      5 C         -28.7610   22.1720  -77.7790 C.ar    1  LIG11      -0.2500
      6 C         -26.1000   22.3640  -77.0570 C.ar    1  LIG11       0.2200
      7 C         -28.3950   22.9370  -76.6690 C.ar    1  LIG11      -0.0760
      8 H         -25.6680   21.0700  -78.7430 H       1  LIG11       0.1910
      9 H         -29.8110   22.1170  -78.0630 H       1  LIG11       0.1620
     10 H         -29.1620   23.4550  -76.0900 H       1  LIG11       0.1590
     11 C         -26.6800   23.8340  -75.0850 C.ar    1  LIG11       0.0350
     12 C         -25.7770   23.3080  -74.1480 C.ar    1  LIG11      -0.1610
     13 H         -25.3400   22.3240  -74.3030 H       1  LIG11       0.1570
     14 C         -25.4420   24.0520  -73.0130 C.ar    1  LIG11      -0.1290
     15 H         -24.7400   23.6440  -72.2870 H       1  LIG11       0.1480
     16 C         -26.0040   25.3160  -72.8100 C.ar    1  LIG11      -0.1500
     17 H         -25.7400   25.8940  -71.9250 H       1  LIG11       0.1480
     18 C         -26.9060   25.8380  -73.7430 C.ar    1  LIG11      -0.1300
     19 C         -27.2470   25.1020  -74.8800 C.ar    1  LIG11      -0.1700
     20 H         -27.3430   26.8230  -73.5830 H       1  LIG11       0.1470
     21 H         -27.9440   25.5120  -75.6070 H       1  LIG11       0.1540
     22 C         -28.2030   20.6560  -79.7160 C.3     1  LIG11      -0.2400
     23 H         -29.2990   20.8050  -79.9210 H       1  LIG11       0.1730
     24 C         -28.0020   19.1700  -79.4220 C.2     1  LIG11       0.6270
     25 O         -26.9810   18.5400  -79.4590 O.2     1  LIG11      -0.4330
     26 O         -29.1500   18.4640  -79.1200 O.3     1  LIG11      -0.5270
     27 H         -29.2970   18.2810  -78.1640 H       1  LIG11       0.3320
     28 C         -27.4290   21.0520  -80.9730 C.3     1  LIG11      -0.4390
     29 H         -27.8280   21.9760  -81.4130 H       1  LIG11       0.1650
     30 H         -27.4940   20.2820  -81.7540 H       1  LIG11       0.1690
     31 H         -26.3670   21.2120  -80.7530 H       1  LIG11       0.1620
@<TRIPOS>BOND
     1    30    28    1
     2    29    28    1
     3    28    31    1
     4    28    22    1
     5    23    22    1
     6    22    24    1
     7    22     2    1
     8    25    24    2
     9    24    26    1
    10    26    27    1
    11     8     4    1
    12     2     4   ar
    13     2     5   ar
    14     4     6   ar
    15     9     5    1
    16     5     7   ar
    17     6     1    1
    18     6     3   ar
    19     7     3   ar
    20     7    10    1
    21     3    11    1
    22    21    19    1
    23    11    19   ar
    24    11    12   ar
    25    19    18   ar
    26    13    12    1
    27    12    14   ar
    28    18    20    1
    29    18    16   ar
    30    14    16   ar
    31    14    15    1
    32    16    17    1
@<TRIPOS>MOLECULE
not_864
 6 5 0 0 0
SMALL
GASTEIGER

@<TRIPOS>ATOM
      1 C         -37.6370   18.1700  -63.3850 C.3     1  LIG11      -0.1770
      2 H         -38.2960   17.4710  -63.9160 H       1  LIG11       0.1570
      3 H         -36.5880   17.8910  -63.5300 H       1  LIG11       0.1230
      4 H         -37.8240   19.1960  -63.7140 H       1  LIG11       0.1230
      5 O         -38.0120   18.0090  -62.0100 O.3     1  LIG11      -0.5280
      6 H         -38.3910   17.1190  -61.8730 H       1  LIG11       0.3010
@<TRIPOS>BOND
     1     2     1    1
     2     4     1    1
     3     3     1    1
     4     1     5    1
     5     5     6    1
@<TRIPOS>MOLECULE
not_96749
 24 23 0 0 0
SMALL
GASTEIGER

@<TRIPOS>ATOM
      1 C         -26.7810   23.4770  -74.9560 C.3     1  LIG11       0.0310
      2 H         -27.6740   23.0270  -74.4550 H       1  LIG11       0.1670
      3 C         -26.1280   24.5120  -74.0090 C.3     1  LIG11       0.0510
      4 H         -25.2790   25.0310  -74.5260 H       1  LIG11       0.1750
      5 C         -27.1110   25.5460  -73.4260 C.3     1  LIG11      -0.0620
      6 H         -26.6250   26.1260  -72.6190 H       1  LIG11       0.1450
      7 H         -28.0390   25.0920  -73.0340 H       1  LIG11       0.1500
      8 O         -27.5730   26.4240  -74.4540 O.3     1  LIG11      -0.5510
      9 H         -27.1520   27.3170  -74.3580 H       1  LIG11       0.3300
     10 O         -25.4880   23.8240  -72.9370 O.3     1  LIG11      -0.5310
     11 H         -24.8710   23.1380  -73.2900 H       1  LIG11       0.3230
     12 C         -25.7690   22.4180  -75.4390 C.3     1  LIG11       0.0340
     13 H         -26.2350   21.7220  -76.1940 H       1  LIG11       0.1990
     14 C         -24.4610   23.0500  -75.9750 C.3     1  LIG11      -0.0560
     15 H         -24.3400   24.1210  -75.6780 H       1  LIG11       0.1740
     16 C         -24.3610   22.9360  -77.5030 C.2     1  LIG11       0.3680
     17 O         -25.0260   23.6360  -78.2330 O.2     1  LIG11      -0.4760
     18 H         -23.6350   22.1900  -77.8650 H       1  LIG11       0.1350
     19 O         -23.3170   22.4040  -75.4340 O.3     1  LIG11      -0.5340
     20 H         -22.7440   23.0640  -74.9390 H       1  LIG11       0.3420
     21 O         -25.4230   21.5320  -74.3780 O.3     1  LIG11      -0.5310
     22 H         -24.9750   22.0170  -73.6380 H       1  LIG11       0.3300
     23 O         -27.3710   24.1120  -76.0900 O.3     1  LIG11      -0.5400
     24 H         -27.2510   23.5660  -76.9040 H       1  LIG11       0.3260
@<TRIPOS>BOND
     1    17    16    2
     2    18    16    1
     3    16    14    1
     4    24    23    1
     5    13    12    1
     6    23     1    1
     7    14    15    1
     8    14    12    1
     9    14    19    1
    10    12     1    1
    11    12    21    1
    12    19    20    1
    13     1     2    1
    14     1     3    1
    15     4     3    1
    16     8     9    1
    17     8     5    1
    18    21    22    1
    19     3     5    1
    20     3    10    1
    21     5     7    1
    22     5     6    1
    23    11    10    1
@<TRIPOS>MOLECULE
not_971
 13 13 0 0 0
SMALL
GASTEIGER

@<TRIPOS>ATOM
      1 C         -25.0870   22.4100  -75.0910 C.ar    1  LIG11       0.3470
      2 C         -23.9030   22.2640  -75.8340 C.ar    1  LIG11      -0.3020
      3 C         -26.2370   23.0160  -75.6180 C.ar    1  LIG11      -0.3760
      4 C         -23.8850   22.7450  -77.1410 C.ar    1  LIG11      -0.0240
      5 C         -26.1860   23.4880  -76.9320 C.ar    1  LIG11      -0.0080
      6 C         -25.0200   23.3560  -77.6920 C.ar    1  LIG11      -0.2650
      7 H         -23.0360   21.7870  -75.3840 H       1  LIG11       0.1800
      8 H         -27.1400   23.1180  -75.0260 H       1  LIG11       0.1670
      9 H         -22.9800   22.6450  -77.7400 H       1  LIG11       0.1410
     10 H         -27.0670   23.9640  -77.3650 H       1  LIG11       0.1370
     11 H         -24.9920   23.7260  -78.7140 H       1  LIG11       0.1570
     12 O         -25.0440   21.9160  -73.8080 O.3     1  LIG11      -0.4760
     13 H         -25.7390   21.2290  -73.6510 H       1  LIG11       0.3220
@<TRIPOS>BOND
     1    11     6    1
     2     9     4    1
     3     6     4   ar
     4     6     5   ar
     5    10     5    1
     6     4     2   ar
     7     5     3   ar
     8     2     7    1
     9     2     1   ar
    10     3     1   ar
    11     3     8    1
    12     1    12    1
    13    12    13    1
@<TRIPOS>MOLECULE
yes_10442653
 23 25 0 0 0
SMALL
GASTEIGER

@<TRIPOS>ATOM
      1 S         -28.0910   13.1540  -79.5370 S.O2    1  LIG11       2.4500
      2 N         -28.2240   13.6540  -81.2560 N.3     1  LIG11      -0.5860
      3 C         -28.3320   12.7300  -82.2930 C.3     1  LIG11      -0.1820
      4 C         -28.1560   11.2740  -82.1730 C.2     1  LIG11       0.4860
      5 C         -28.1980   11.4230  -79.5960 C.ar    1  LIG11      -0.5020
      6 C         -28.2020   10.6570  -80.8150 C.ar    1  LIG11      -0.0590
      7 O         -26.7710   13.5230  -79.1380 O.2     1  LIG11      -0.8340
      8 O         -29.2580   13.6810  -78.9090 O.2     1  LIG11      -0.8330
      9 O         -28.0050   10.5870  -83.1660 O.2     1  LIG11      -0.3850
     10 C         -28.1990   14.9910  -81.4890 C.3     1  LIG11       0.1840
     11 C         -28.2640    9.2840  -80.6490 C.ar    1  LIG11       0.0380
     12 C         -28.2590   10.7110  -78.4230 C.ar    1  LIG11       0.0880
     13 C         -28.3210    8.6610  -79.4720 C.ar    1  LIG11       0.0350
     14 C         -28.3200    9.3780  -78.3450 C.ar    1  LIG11       0.0120
     15 C         -28.6500   13.2530  -83.6760 C.2     1  LIG11       0.6100
     16 O         -29.7510   13.5780  -84.0350 O.2     1  LIG11      -0.3860
     17 N         -27.4750   13.4620  -84.4580 N.am    1  LIG11      -0.3370
     18 C         -27.0850   12.8410  -85.5310 C.ar    1  LIG11       0.3300
     19 C         -27.7160   12.6210  -86.7980 C.ar    1  LIG11      -0.0940
     20 C         -27.1830   11.9380  -87.7910 C.ar    1  LIG11       0.0220
     21 C         -25.9680   11.3710  -87.7110 C.ar    1  LIG11       0.0180
     22 C         -25.3290   11.5680  -86.5000 C.ar    1  LIG11       0.1250
     23 N         -25.7180   12.1970  -85.4660 N.ar    1  LIG11      -0.2010
@<TRIPOS>BOND
     1    20    21   ar
     2    20    19   ar
     3    21    22   ar
     4    19    18   ar
     5    22    23   ar
     6    18    23   ar
     7    18    17    1
     8    17    15   am
     9    16    15    2
    10    15     3    1
    11     9     4    2
    12     3     4    1
    13     3     2    1
    14     4     6    1
    15    10     2    1
    16     2     1    1
    17     6    11   ar
    18     6     5   ar
    19    11    13   ar
    20     5     1    1
    21     5    12   ar
    22     1     7    2
    23     1     8    2
    24    13    14   ar
    25    12    14   ar
@<TRIPOS>MOLECULE
yes_10442740
 23 25 0 0 0
SMALL
GASTEIGER

@<TRIPOS>ATOM
      1 S         -28.9680   13.8190  -80.1960 S.O2    1  LIG11       2.4500
      2 N         -29.0580   12.4540  -79.0350 N.3     1  LIG11      -0.5840
      3 C         -28.7230   11.1510  -79.3960 C.3     1  LIG11      -0.1810
      4 C         -28.2780   10.6970  -80.7210 C.2     1  LIG11       0.4790
      5 C         -28.6220   13.0520  -81.7160 C.ar    1  LIG11      -0.5030
      6 C         -28.3190   11.6540  -81.8630 C.ar    1  LIG11      -0.0550
      7 O         -27.8360   14.5870  -79.7910 O.2     1  LIG11      -0.8340
      8 O         -30.2890   14.3580  -80.2330 O.2     1  LIG11      -0.8350
      9 O         -27.8960    9.5510  -80.8760 O.2     1  LIG11      -0.3800
     10 C         -29.4310   12.7720  -77.7690 C.3     1  LIG11       0.1820
     11 C         -28.0640   11.2400  -83.1600 C.ar    1  LIG11       0.0370
     12 C         -28.6190   13.8070  -82.8630 C.ar    1  LIG11       0.0880
     13 C         -28.0810   12.0330  -84.2320 C.ar    1  LIG11       0.0340
     14 C         -28.3610   13.3300  -84.0850 C.ar    1  LIG11       0.0100
     15 C         -28.8150   10.0720  -78.3370 C.2     1  LIG11       0.6490
     16 N         -30.0200    9.3370  -78.4700 N.am    1  LIG11      -0.4490
     17 C         -31.0480    9.1430  -77.7740 C.ar    1  LIG11       0.4300
     18 N         -32.1680    8.2940  -78.0920 N.ar    1  LIG11      -0.3410
     19 S         -31.4400    9.9720  -76.1310 S.2     1  LIG11      -0.0080
     20 C         -33.0410    8.3680  -77.1750 C.ar    1  LIG11       0.3590
     21 C         -33.0150    9.1340  -75.9820 C.ar    1  LIG11      -0.7220
     22 C         -33.8020    9.3060  -74.9440 C.3     1  LIG11       0.5680
     23 O         -27.9440    9.8030  -77.5570 O.2     1  LIG11      -0.3930
@<TRIPOS>BOND
     1    13    14   ar
     2    13    11   ar
     3    14    12   ar
     4    11     6   ar
     5    12     5   ar
     6     6     5   ar
     7     6     4    1
     8     5     1    1
     9     9     4    2
    10     4     3    1
    11     8     1    2
    12     1     7    2
    13     1     2    1
    14     3     2    1
    15     3    15    1
    16     2    10    1
    17    16    15   am
    18    16    17    1
    19    15    23    2
    20    18    17   ar
    21    18    20   ar
    22    17    19   ar
    23    20    21   ar
    24    19    21   ar
    25    21    22    1
@<TRIPOS>MOLECULE
yes_1265915
 42 44 0 0 0
SMALL
GASTEIGER

@<TRIPOS>ATOM
      1 F         -28.0950    7.7870  -80.4120 F       1  LIG11      -0.1570
      2 C         -28.5490   12.6770  -79.9390 C.2     1  LIG11      -0.1120
      3 C         -28.3810   11.3530  -80.5710 C.ar    1  LIG11       0.0850
      4 C         -28.5670   13.6390  -80.9090 C.2     1  LIG11       0.0990
      5 C         -28.3930   13.0020  -82.2570 C.2     1  LIG11      -0.0070
      6 C         -28.2910   11.5480  -81.9910 C.ar    1  LIG11      -0.1010
      7 C         -28.3380   13.6590  -83.4220 C.2     1  LIG11      -0.1620
      8 C         -28.3180   10.0870  -80.0150 C.ar    1  LIG11      -0.3110
      9 C         -28.1400   10.4680  -82.8440 C.ar    1  LIG11      -0.0470
     10 C         -28.1610    9.0190  -80.9190 C.ar    1  LIG11       0.2560
     11 C         -28.0740    9.1710  -82.3010 C.ar    1  LIG11      -0.2850
     12 H         -28.4290   14.7530  -83.4560 H       1  LIG11       0.1690
     13 H         -28.3700    9.9150  -78.9440 H       1  LIG11       0.1810
     14 H         -28.0750   10.6070  -83.9250 H       1  LIG11       0.1640
     15 H         -27.9570    8.3090  -82.9560 H       1  LIG11       0.1810
     16 C         -28.7330   15.0910  -80.7090 C.3     1  LIG11      -0.5000
     17 H         -29.6650   15.3190  -80.1650 H       1  LIG11       0.1790
     18 H         -27.9090   15.5470  -80.1410 H       1  LIG11       0.1700
     19 H         -28.7920   15.6320  -81.6710 H       1  LIG11       0.1880
     20 C         -28.1590   13.0380  -84.7460 C.ar    1  LIG11       0.0700
     21 C         -26.8700   12.8920  -85.2820 C.ar    1  LIG11      -0.2110
     22 H         -26.0020   13.2110  -84.7070 H       1  LIG11       0.1620
     23 C         -26.7040   12.3370  -86.5550 C.ar    1  LIG11      -0.0790
     24 H         -25.7000   12.2330  -86.9650 H       1  LIG11       0.1420
     25 C         -27.8240   11.9290  -87.2770 C.ar    1  LIG11      -0.3170
     26 C         -29.1090   12.0690  -86.7530 C.ar    1  LIG11      -0.0510
     27 C         -29.2800   12.6260  -85.4830 C.ar    1  LIG11      -0.2110
     28 H         -29.9780   11.7470  -87.3410 H       1  LIG11       0.1760
     29 H         -30.2820   12.7380  -85.0660 H       1  LIG11       0.1660
     30 S         -27.6260   11.3260  -88.9510 S.3     1  LIG11       1.0690
     31 O         -28.3530   10.0310  -89.0200 O.3     1  LIG11      -0.7440
     32 C         -25.8560   10.9300  -88.8710 C.3     1  LIG11      -0.7250
     33 H         -25.2730   11.5940  -89.5110 H       1  LIG11       0.1840
     34 H         -25.6980    9.8990  -89.2050 H       1  LIG11       0.1950
     35 H         -25.4500   10.9930  -87.8560 H       1  LIG11       0.1950
     36 C         -28.6790   12.8800  -78.4760 C.3     1  LIG11      -0.4310
     37 H         -29.0400   13.9040  -78.2340 H       1  LIG11       0.1910
     38 H         -29.4620   12.2010  -78.0610 H       1  LIG11       0.2020
     39 C         -27.3730   12.6100  -77.7600 C.2     1  LIG11       0.6590
     40 O         -26.2810   12.9870  -78.1000 O.2     1  LIG11      -0.4560
     41 O         -27.4450   11.8430  -76.6210 O.3     1  LIG11      -0.5160
     42 H         -26.7790   11.1140  -76.5650 H       1  LIG11       0.3390
@<TRIPOS>BOND
     1    33    32    1
     2    34    32    1
     3    31    30    1
     4    30    32    1
     5    30    25    1
     6    32    35    1
     7    28    26    1
     8    25    26   ar
     9    25    23   ar
    10    24    23    1
    11    26    27   ar
    12    23    21   ar
    13    27    29    1
    14    27    20   ar
    15    21    20   ar
    16    21    22    1
    17    20     7    1
    18    14     9    1
    19    12     7    1
    20     7     5    2
    21    15    11    1
    22     9    11   ar
    23     9     6   ar
    24    11    10   ar
    25     5     6    1
    26     5     4    1
    27     6     3   ar
    28    19    16    1
    29    10     1    1
    30    10     8   ar
    31     4    16    1
    32     4     2    2
    33    16    17    1
    34    16    18    1
    35     3     8   ar
    36     3     2    1
    37     8    13    1
    38     2    36    1
    39    36    37    1
    40    36    38    1
    41    36    39    1
    42    40    39    2
    43    39    41    1
    44    41    42    1
@<TRIPOS>MOLECULE
yes_1353
 37 39 0 0 0
SMALL
GASTEIGER

@<TRIPOS>ATOM
      1 N         -25.2140   21.3220  -78.3070 N.ar    1  LIG11      -0.0230
      2 N         -25.7900   20.8730  -79.4530 N.ar    1  LIG11      -0.1490
      3 C         -26.1880   21.8120  -77.3990 C.ar    1  LIG11       0.0170
      4 C         -27.4210   21.6400  -78.0250 C.ar    1  LIG11      -0.2140
      5 C         -27.1340   21.0570  -79.3020 C.ar    1  LIG11      -0.1110
      6 H         -28.3900   21.9020  -77.6430 H       1  LIG11       0.1950
      7 C         -23.7790   21.2430  -78.1420 C.ar    1  LIG11       0.2420
      8 C         -23.0730   20.1810  -78.7320 C.ar    1  LIG11      -0.2860
      9 H         -23.5880   19.4190  -79.3190 H       1  LIG11       0.1890
     10 C         -21.6880   20.1200  -78.5640 C.ar    1  LIG11       0.0630
     11 H         -21.1260   19.2880  -79.0100 H       1  LIG11       0.1650
     12 C         -21.0220   21.1050  -77.8270 C.ar    1  LIG11      -0.5910
     13 C         -21.7360   22.1550  -77.2430 C.ar    1  LIG11       0.0550
     14 C         -23.1210   22.2340  -77.3960 C.ar    1  LIG11      -0.2590
     15 H         -21.2120   22.9170  -76.6510 H       1  LIG11       0.1680
     16 H         -23.6850   23.0610  -76.9530 H       1  LIG11       0.1980
     17 S         -19.3030   21.0240  -77.6350 S.O2    1  LIG11       2.5020
     18 O         -18.9300   19.6690  -77.2870 O.2     1  LIG11      -0.9290
     19 O         -18.8650   22.1560  -76.8480 O.2     1  LIG11      -0.9300
     20 N         -18.7040   21.2850  -79.2240 N.3     1  LIG11      -0.9340
     21 H         -19.3640   21.5390  -79.9550 H       1  LIG11       0.2740
     22 H         -18.0270   20.6240  -79.6000 H       1  LIG11       0.2740
     23 C         -25.8860   22.4130  -76.1010 C.ar    1  LIG11      -0.0100
     24 C         -25.1760   21.6730  -75.1420 C.ar    1  LIG11      -0.1310
     25 H         -24.8420   20.6600  -75.3710 H       1  LIG11       0.1660
     26 C         -24.9010   22.2330  -73.8910 C.ar    1  LIG11      -0.1530
     27 H         -24.3510   21.6560  -73.1440 H       1  LIG11       0.1760
     28 C         -25.3380   23.5300  -73.6130 C.ar    1  LIG11       0.0370
     29 BR        -24.9550   24.3010  -71.9110 Br      1  LIG11      -0.0820
     30 C         -26.0510   24.2770  -74.5560 C.ar    1  LIG11      -0.1490
     31 C         -26.3260   23.7140  -75.8040 C.ar    1  LIG11      -0.1320
     32 H         -26.3910   25.2900  -74.3270 H       1  LIG11       0.1770
     33 H         -26.8880   24.2860  -76.5430 H       1  LIG11       0.1650
     34 C         -28.1090   20.6770  -80.3630 C.3     1  LIG11       0.5330
     35 F         -29.3360   21.1960  -80.2060 F       1  LIG11      -0.1680
     36 F         -27.7460   21.0670  -81.5960 F       1  LIG11      -0.1790
     37 F         -28.3190   19.3580  -80.4890 F       1  LIG11      -0.1670
@<TRIPOS>BOND
     1    36    34    1
     2    37    34    1
     3    34    35    1
     4    34     5    1
     5    21    20    1
     6    22    20    1
     7     2     5   ar
     8     2     1   ar
     9     9     8    1
    10     5     4   ar
    11    20    17    1
    12    11    10    1
    13     8    10   ar
    14     8     7   ar
    15    10    12   ar
    16     1     7    1
    17     1     3   ar
    18     7    14   ar
    19     4     6    1
    20     4     3   ar
    21    12    17    1
    22    12    13   ar
    23    17    18    2
    24    17    19    2
    25     3    23    1
    26    14    13   ar
    27    14    16    1
    28    13    15    1
    29    33    31    1
    30    23    31   ar
    31    23    24   ar
    32    31    30   ar
    33    25    24    1
    34    24    26   ar
    35    30    32    1
    36    30    28   ar
    37    26    28   ar
    38    26    27    1
    39    28    29    1
@<TRIPOS>MOLECULE
yes_137720
 31 32 0 0 0
SMALL
GASTEIGER

@<TRIPOS>ATOM
      1 C         -27.4170   21.4160  -78.4250 C.ar    1  LIG11      -0.0520
      2 C         -25.9730   22.1920  -76.6200 C.ar    1  LIG11      -0.1010
      3 C         -27.0370   22.9740  -76.0910 C.ar    1  LIG11       0.1380
      4 C         -26.1900   21.4190  -77.8010 C.ar    1  LIG11      -0.1260
      5 C         -28.4940   22.1880  -77.8810 C.ar    1  LIG11      -0.1420
      6 C         -28.3100   22.9450  -76.7550 C.ar    1  LIG11      -0.1900
      7 C         -24.7060   22.1990  -75.9570 C.ar    1  LIG11      -0.0360
      8 C         -26.8230   23.7600  -74.9300 C.ar    1  LIG11      -0.3630
      9 C         -25.5770   23.7420  -74.3220 C.ar    1  LIG11       0.3470
     10 C         -24.5000   22.9530  -74.8280 C.ar    1  LIG11      -0.3270
     11 H         -25.3600   20.8340  -78.1990 H       1  LIG11       0.1570
     12 H         -29.4660   22.1580  -78.3740 H       1  LIG11       0.1510
     13 H         -29.1250   23.5350  -76.3380 H       1  LIG11       0.1610
     14 H         -23.8980   21.5910  -76.3670 H       1  LIG11       0.1470
     15 H         -27.6220   24.3720  -74.5180 H       1  LIG11       0.1880
     16 H         -23.5390   22.9540  -74.3240 H       1  LIG11       0.1710
     17 C         -27.6600   20.6230  -79.6860 C.3     1  LIG11      -0.2110
     18 H         -26.7610   20.7030  -80.3590 H       1  LIG11       0.1730
     19 C         -27.8380   19.1290  -79.4110 C.2     1  LIG11       0.6230
     20 O         -26.9850   18.2820  -79.4870 O.2     1  LIG11      -0.4520
     21 O         -29.0760   18.7030  -78.9830 O.3     1  LIG11      -0.5260
     22 H         -29.7140   18.4560  -79.6940 H       1  LIG11       0.3380
     23 C         -28.8730   21.1360  -80.4650 C.3     1  LIG11      -0.4460
     24 H         -29.7660   20.5300  -80.2500 H       1  LIG11       0.1710
     25 H         -29.1260   22.1720  -80.2050 H       1  LIG11       0.1590
     26 H         -28.6910   21.1020  -81.5460 H       1  LIG11       0.1610
     27 O         -25.4970   24.5480  -73.2100 O.3     1  LIG11      -0.3680
     28 C         -26.7250   24.9060  -72.5320 C.3     1  LIG11      -0.1910
     29 H         -27.0560   25.9030  -72.8360 H       1  LIG11       0.1410
     30 H         -27.4140   24.1350  -72.9030 H       1  LIG11       0.1640
     31 H         -26.5970   24.8260  -71.4490 H       1  LIG11       0.1400
@<TRIPOS>BOND
     1    26    23    1
     2    23    24    1
     3    23    25    1
     4    23    17    1
     5    18    17    1
     6    22    21    1
     7    17    19    1
     8    17     1    1
     9    20    19    2
    10    19    21    1
    11     1     5   ar
    12     1     4   ar
    13    12     5    1
    14    11     4    1
    15     5     6   ar
    16     4     2   ar
    17     6    13    1
    18     6     3   ar
    19     2     3   ar
    20     2     7   ar
    21    14     7    1
    22     3     8   ar
    23     7    10   ar
    24     8    15    1
    25     8     9   ar
    26    10    16    1
    27    10     9   ar
    28     9    27    1
    29    27    28    1
    30    30    28    1
    31    29    28    1
    32    28    31    1
@<TRIPOS>MOLECULE
yes_147913
 31 32 0 0 0
SMALL
GASTEIGER

@<TRIPOS>ATOM
      1 C         -27.7810   21.5570  -78.3240 C.ar    1  LIG11      -0.0400
      2 C         -26.2040   22.2920  -76.6190 C.ar    1  LIG11      -0.0880
      3 C         -27.2130   23.0860  -76.0130 C.ar    1  LIG11       0.1440
      4 C         -26.5130   21.5330  -77.7850 C.ar    1  LIG11      -0.1500
      5 C         -28.8000   22.3470  -77.7080 C.ar    1  LIG11      -0.1270
      6 C         -28.5240   23.0930  -76.5900 C.ar    1  LIG11      -0.1970
      7 C         -24.8890   22.2660  -76.0410 C.ar    1  LIG11      -0.0620
      8 C         -26.9080   23.8570  -74.8490 C.ar    1  LIG11      -0.4150
      9 C         -25.6330   23.7990  -74.3320 C.ar    1  LIG11       0.3490
     10 C         -24.5990   22.9960  -74.9240 C.ar    1  LIG11      -0.2670
     11 H         -25.7250   20.9280  -78.2350 H       1  LIG11       0.1510
     12 H         -29.8000   22.3460  -78.1440 H       1  LIG11       0.1580
     13 H         -29.2990   23.7000  -76.1220 H       1  LIG11       0.1600
     14 H         -24.1240   21.6500  -76.5150 H       1  LIG11       0.1490
     15 H         -27.6880   24.4620  -74.4040 H       1  LIG11       0.1790
     16 H         -23.6140   22.9960  -74.4590 H       1  LIG11       0.1810
     17 C         -28.1080   20.7470  -79.5540 C.3     1  LIG11      -0.2160
     18 H         -29.1920   20.8870  -79.8260 H       1  LIG11       0.1700
     19 C         -27.9230   19.2510  -79.3110 C.2     1  LIG11       0.6230
     20 O         -26.8970   18.6240  -79.3370 O.2     1  LIG11      -0.4460
     21 O         -29.0750   18.5230  -79.0880 O.3     1  LIG11      -0.5290
     22 H         -29.5880   18.2830  -79.8940 H       1  LIG11       0.3360
     23 C         -27.2610   21.1910  -80.7480 C.3     1  LIG11      -0.4430
     24 H         -27.7430   20.9230  -81.6990 H       1  LIG11       0.1680
     25 H         -26.2710   20.7160  -80.7480 H       1  LIG11       0.1630
     26 H         -27.1050   22.2770  -80.7380 H       1  LIG11       0.1600
     27 O         -25.1720   24.4640  -73.2220 O.3     1  LIG11      -0.3680
     28 C         -26.1410   24.8730  -72.2260 C.3     1  LIG11      -0.1910
     29 H         -26.3880   25.9310  -72.3560 H       1  LIG11       0.1420
     30 H         -25.5880   24.7090  -71.2930 H       1  LIG11       0.1620
     31 H         -27.0290   24.2370  -72.2730 H       1  LIG11       0.1420
@<TRIPOS>BOND
     1    24    23    1
     2    23    25    1
     3    23    26    1
     4    23    17    1
     5    22    21    1
     6    18    17    1
     7    17    19    1
     8    17     1    1
     9    20    19    2
    10    19    21    1
    11     1     4   ar
    12     1     5   ar
    13    11     4    1
    14    12     5    1
    15     4     2   ar
    16     5     6   ar
    17     2     7   ar
    18     2     3   ar
    19     6    13    1
    20     6     3   ar
    21    14     7    1
    22     7    10   ar
    23     3     8   ar
    24    10    16    1
    25    10     9   ar
    26     8    15    1
    27     8     9   ar
    28     9    27    1
    29    27    28    1
    30    29    28    1
    31    31    28    1
    32    28    30    1
@<TRIPOS>MOLECULE
yes_171462
 38 40 0 0 0
SMALL
GASTEIGER

@<TRIPOS>ATOM
      1 C         -27.8810   21.6460  -78.0570 C.ar    1  LIG11       0.0820
      2 C         -25.5230   21.8160  -77.5570 C.ar    1  LIG11       0.0840
      3 C         -24.5340   23.2770  -75.9150 C.3     1  LIG11      -0.2530
      4 C         -25.8010   22.8030  -76.5810 C.ar    1  LIG11      -0.0610
      5 C         -24.0510   21.5320  -77.6400 C.3     1  LIG11      -0.2970
      6 C         -23.4070   22.3980  -76.5320 C.3     1  LIG11      -0.2280
      7 C         -26.5460   21.2420  -78.2930 C.ar    1  LIG11      -0.2640
      8 C         -28.1420   22.6270  -77.0950 C.ar    1  LIG11      -0.2050
      9 C         -27.1050   23.2160  -76.3570 C.ar    1  LIG11      -0.1430
     10 H         -24.3510   24.3530  -76.1640 H       1  LIG11       0.1740
     11 H         -23.8380   20.4570  -77.4880 H       1  LIG11       0.1570
     12 H         -23.6510   21.7890  -78.6380 H       1  LIG11       0.1540
     13 H         -22.5970   23.0290  -76.9320 H       1  LIG11       0.1380
     14 H         -22.9460   21.7550  -75.7570 H       1  LIG11       0.1630
     15 H         -26.3290   20.4820  -79.0400 H       1  LIG11       0.1620
     16 H         -29.1760   22.9380  -76.9030 H       1  LIG11       0.1660
     17 H         -27.3320   23.9780  -75.6080 H       1  LIG11       0.1310
     18 C         -28.9730   20.9550  -78.8500 C.3     1  LIG11      -0.0920
     19 C         -29.0390   21.5470  -80.2760 C.3     1  LIG11      -0.2650
     20 C         -27.9440   20.9990  -81.1970 C.3     1  LIG11      -0.2460
     21 H         -28.9700   22.6500  -80.2280 H       1  LIG11       0.1340
     22 H         -30.0320   21.3190  -80.7090 H       1  LIG11       0.1320
     23 H         -28.0560   21.4290  -82.2100 H       1  LIG11       0.1240
     24 H         -26.9500   21.3270  -80.8320 H       1  LIG11       0.1380
     25 C         -28.0000   19.4680  -81.2640 C.3     1  LIG11      -0.2530
     26 H         -27.2110   19.0860  -81.9370 H       1  LIG11       0.1240
     27 H         -28.9620   19.1460  -81.7070 H       1  LIG11       0.1310
     28 C         -27.8410   18.8620  -79.8650 C.3     1  LIG11      -0.2460
     29 H         -26.8170   19.0730  -79.4840 H       1  LIG11       0.1290
     30 H         -27.9260   17.7590  -79.9170 H       1  LIG11       0.1240
     31 C         -28.8760   19.4150  -78.8780 C.3     1  LIG11      -0.2690
     32 H         -29.8750   19.0140  -79.1450 H       1  LIG11       0.1340
     33 H         -28.6580   19.0410  -77.8600 H       1  LIG11       0.1320
     34 H         -29.9510   21.1950  -78.3490 H       1  LIG11       0.1250
     35 C         -24.5630   23.1480  -74.4010 C.2     1  LIG11       0.6350
     36 O         -24.2710   23.9860  -73.5880 O.2     1  LIG11      -0.4480
     37 O         -25.0400   21.9530  -73.9000 O.3     1  LIG11      -0.5320
     38 H         -26.0130   21.9310  -73.7120 H       1  LIG11       0.3300
@<TRIPOS>BOND
     1    23    20    1
     2    26    25    1
     3    27    25    1
     4    25    20    1
     5    25    28    1
     6    20    24    1
     7    20    19    1
     8    22    19    1
     9    19    21    1
    10    19    18    1
    11    30    28    1
    12    28    29    1
    13    28    31    1
    14    32    31    1
    15    15     7    1
    16    31    18    1
    17    31    33    1
    18    18    34    1
    19    18     1    1
    20    12     5    1
    21     7     1   ar
    22     7     2   ar
    23     1     8   ar
    24     5     2    1
    25     5    11    1
    26     5     6    1
    27     2     4   ar
    28     8    16    1
    29     8     9   ar
    30    13     6    1
    31     4     9   ar
    32     4     3    1
    33     6     3    1
    34     6    14    1
    35     9    17    1
    36    10     3    1
    37     3    35    1
    38    35    37    1
    39    35    36    2
    40    37    38    1
@<TRIPOS>MOLECULE
yes_1906
 20 20 0 0 0
SMALL
GASTEIGER

@<TRIPOS>ATOM
      1 C         -25.5620   22.5030  -75.1580 C.ar    1  LIG11       0.1030
      2 C         -24.5630   22.5960  -74.1720 C.ar    1  LIG11      -0.1220
      3 C         -26.6990   23.3360  -75.1090 C.ar    1  LIG11      -0.1240
      4 C         -24.6930   23.5170  -73.1320 C.ar    1  LIG11      -0.3110
      5 C         -26.8440   24.2510  -74.0730 C.ar    1  LIG11      -0.2420
      6 C         -25.8340   24.3310  -73.0960 C.ar    1  LIG11       0.3000
      7 H         -23.6860   21.9510  -74.2160 H       1  LIG11       0.1600
      8 H         -27.4570   23.2730  -75.8910 H       1  LIG11       0.1630
      9 H         -23.9240   23.5960  -72.3690 H       1  LIG11       0.1680
     10 H         -27.7080   24.9080  -74.0030 H       1  LIG11       0.1820
     11 N         -25.3890   21.5760  -76.2400 N.am    1  LIG11      -0.5170
     12 H         -25.5760   20.5920  -76.0310 H       1  LIG11       0.2880
     13 C         -25.1690   21.9070  -77.5940 C.2     1  LIG11       0.6500
     14 O         -25.1140   20.9780  -78.3820 O.2     1  LIG11      -0.5410
     15 C         -25.0090   23.3450  -77.9720 C.3     1  LIG11      -0.6060
     16 H         -24.9220   23.9850  -77.0830 H       1  LIG11       0.1950
     17 H         -25.8340   23.7320  -78.5850 H       1  LIG11       0.1950
     18 H         -24.0760   23.4770  -78.5460 H       1  LIG11       0.2020
     19 O         -26.0520   25.2650  -72.1110 O.3     1  LIG11      -0.4670
     20 H         -25.3240   25.9320  -72.0640 H       1  LIG11       0.3240
@<TRIPOS>BOND
     1    17    15    1
     2    18    15    1
     3    14    13    2
     4    15    13    1
     5    15    16    1
     6    13    11   am
     7    11    12    1
     8    11     1    1
     9     8     3    1
    10     1     3   ar
    11     1     2   ar
    12     3     5   ar
    13     7     2    1
    14     2     4   ar
    15     5    10    1
    16     5     6   ar
    17     4     6   ar
    18     4     9    1
    19     6    19    1
    20    19    20    1
@<TRIPOS>MOLECULE
yes_2000
 28 28 0 0 0
SMALL
GASTEIGER

@<TRIPOS>ATOM
      1 CL        -24.2120   22.9980  -77.1420 Cl      1  LIG11      -0.0530
      2 C         -27.5930   21.5090  -78.6640 C.ar    1  LIG11       0.0620
      3 C         -26.8440   23.2490  -76.6130 C.ar    1  LIG11       0.2380
      4 C         -26.2330   21.7770  -78.4480 C.ar    1  LIG11      -0.1690
      5 C         -28.5710   22.1080  -77.8530 C.ar    1  LIG11      -0.1460
      6 C         -25.8650   22.6450  -77.4220 C.ar    1  LIG11      -0.0460
      7 C         -28.2020   22.9770  -76.8260 C.ar    1  LIG11      -0.2020
      8 H         -25.4650   21.3100  -79.0660 H       1  LIG11       0.1720
      9 H         -29.6260   21.8890  -78.0160 H       1  LIG11       0.1580
     10 H         -28.9490   23.4540  -76.1920 H       1  LIG11       0.1770
     11 O         -26.4900   24.2020  -75.6780 O.3     1  LIG11      -0.4330
     12 C         -26.6200   23.7740  -74.2790 C.3     1  LIG11       0.0100
     13 H         -25.7470   23.1610  -74.0050 H       1  LIG11       0.1270
     14 H         -27.5470   23.1840  -74.1910 H       1  LIG11       0.1190
     15 C         -26.6790   25.1050  -73.5330 C.3     1  LIG11      -0.2580
     16 H         -27.6920   25.5440  -73.6510 H       1  LIG11       0.1540
     17 H         -25.9900   25.8310  -74.0090 H       1  LIG11       0.1510
     18 C         -26.3380   24.9250  -72.0590 C.3     1  LIG11      -0.4590
     19 H         -26.1450   23.8700  -71.8300 H       1  LIG11       0.1530
     20 H         -25.4410   25.4880  -71.7750 H       1  LIG11       0.1500
     21 H         -27.1560   25.2530  -71.4060 H       1  LIG11       0.1500
     22 C         -28.0040   20.5660  -79.7590 C.3     1  LIG11      -0.4690
     23 H         -27.4070   20.7600  -80.6790 H       1  LIG11       0.1930
     24 H         -29.0590   20.7560  -80.0570 H       1  LIG11       0.1920
     25 C         -27.8410   19.1230  -79.3390 C.2     1  LIG11       0.6570
     26 O         -26.8380   18.4910  -79.1540 O.2     1  LIG11      -0.4170
     27 O         -29.0340   18.4460  -79.1400 O.3     1  LIG11      -0.5370
     28 H         -29.1270   17.5870  -79.5970 H       1  LIG11       0.3260
@<TRIPOS>BOND
     1    23    22    1
     2    24    22    1
     3    22    25    1
     4    22     2    1
     5    28    27    1
     6    25    26    2
     7    25    27    1
     8     8     4    1
     9     2     4   ar
    10     2     5   ar
    11     4     6   ar
    12     9     5    1
    13     5     7   ar
    14     6     1    1
    15     6     3   ar
    16     7     3   ar
    17     7    10    1
    18     3    11    1
    19    11    12    1
    20    12    14    1
    21    12    13    1
    22    12    15    1
    23    17    15    1
    24    16    15    1
    25    15    18    1
    26    18    19    1
    27    18    20    1
    28    18    21    1
@<TRIPOS>MOLECULE
yes_20572535
 55 57 0 0 0
SMALL
GASTEIGER

@<TRIPOS>ATOM
      1 O         -28.0000    9.5510  -80.8860 O.2     1  LIG11      -0.4640
      2 N         -28.4000   11.7840  -80.6330 N.am    1  LIG11      -0.3320
      3 C         -28.9830   13.9990  -80.8760 C.2     1  LIG11      -0.1490
      4 C         -28.6320   13.4860  -82.1920 C.ar    1  LIG11       0.0720
      5 C         -28.8410   12.9770  -79.9570 C.2     1  LIG11       0.1780
      6 C         -28.3040   12.1080  -82.0350 C.ar    1  LIG11      -0.0020
      7 C         -28.5770   14.0880  -83.4550 C.ar    1  LIG11      -0.3560
      8 C         -27.9440   11.3030  -83.1280 C.ar    1  LIG11      -0.0760
      9 C         -28.1040   10.4860  -80.1210 C.2     1  LIG11       0.6100
     10 C         -28.2060   13.2770  -84.5250 C.ar    1  LIG11       0.3220
     11 C         -27.8960   11.8950  -84.3780 C.ar    1  LIG11      -0.2720
     12 H         -28.8110   15.1420  -83.5690 H       1  LIG11       0.1840
     13 H         -27.7160   10.2420  -82.9880 H       1  LIG11       0.1820
     14 H         -27.6250   11.3240  -85.2650 H       1  LIG11       0.1820
     15 C         -29.4550   15.3800  -80.6270 C.3     1  LIG11      -0.3780
     16 H         -30.1530   15.6910  -81.4430 H       1  LIG11       0.1980
     17 H         -30.0630   15.4440  -79.6990 H       1  LIG11       0.1760
     18 C         -28.3330   16.4070  -80.5640 C.2     1  LIG11       0.6150
     19 O         -27.1590   16.1120  -80.7210 O.2     1  LIG11      -0.5640
     20 N         -28.7280   17.7340  -80.3890 N.am    1  LIG11      -0.5290
     21 H         -29.6790   17.9690  -80.1310 H       1  LIG11       0.2750
     22 CA        -27.7260   18.8300  -80.3580 C.3     1  LIG11       0.0500
     23 HA        -26.7580   18.4290  -80.7690 H       1  LIG11       0.1550
     24 C         -28.2030   20.0200  -81.2090 C.3     1  LIG11      -0.2730
     25 H         -27.3630   20.4570  -81.7800 H       1  LIG11       0.1330
     26 H         -28.9050   19.6290  -81.9810 H       1  LIG11       0.1650
     27 C         -28.8890   21.0930  -80.3720 C.3     1  LIG11      -0.4530
     28 H         -28.1630   21.7390  -79.8660 H       1  LIG11       0.1490
     29 H         -29.5270   20.6550  -79.5950 H       1  LIG11       0.1520
     30 H         -29.5280   21.7310  -80.9930 H       1  LIG11       0.1470
     31 C         -27.4910   19.2660  -78.8880 C.3     1  LIG11      -0.0610
     32 H2        -28.2410   18.8190  -78.2100 H       1  LIG11       0.1380
     33 H1        -27.4860   20.3640  -78.7620 H       1  LIG11       0.1490
     34 O         -26.1720   18.8860  -78.4800 O.3     1  LIG11      -0.5400
     35 H         -25.5370   19.6080  -78.6690 H       1  LIG11       0.3090
     36 C         -29.1210   13.0220  -78.5080 C.3     1  LIG11      -0.5050
     37 H         -30.0500   13.5710  -78.2800 H       1  LIG11       0.1830
     38 H         -28.3150   13.5360  -77.9590 H       1  LIG11       0.1780
     39 H         -29.2220   12.0190  -78.0660 H       1  LIG11       0.1800
     40 C         -27.8770   10.3520  -78.6490 C.ar    1  LIG11      -0.1810
     41 C         -26.6180   10.6490  -78.1090 C.ar    1  LIG11      -0.0600
     42 H         -25.7890   10.9280  -78.7650 H       1  LIG11       0.1640
     43 C         -26.4290   10.5980  -76.7260 C.ar    1  LIG11      -0.2030
     44 H         -25.4550   10.8260  -76.2890 H       1  LIG11       0.1800
     45 C         -27.5130   10.2630  -75.9120 C.ar    1  LIG11       0.0920
     46 CL        -27.2860   10.2010  -74.2050 Cl      1  LIG11      -0.0750
     47 C         -28.7780    9.9790  -76.4340 C.ar    1  LIG11      -0.2050
     48 C         -28.9580   10.0270  -77.8190 C.ar    1  LIG11      -0.0670
     49 H         -29.6110    9.7330  -75.7730 H       1  LIG11       0.1800
     50 H         -29.9400    9.8200  -78.2490 H       1  LIG11       0.1620
     51 O         -28.0910   13.6860  -85.8350 O.3     1  LIG11      -0.3720
     52 C         -27.7240   12.6940  -86.8240 C.3     1  LIG11      -0.1900
     53 H         -27.5270   13.1750  -87.7860 H       1  LIG11       0.1410
     54 H         -28.6320   12.0790  -86.8680 H       1  LIG11       0.1600
     55 H         -26.8670   12.1070  -86.4790 H       1  LIG11       0.1430
@<TRIPOS>BOND
     1    53    52    1
     2    54    52    1
     3    52    55    1
     4    52    51    1
     5    51    10    1
     6    14    11    1
     7    10    11   ar
     8    10     7   ar
     9    11     8   ar
    10    12     7    1
    11     7     4   ar
    12     8    13    1
    13     8     6   ar
    14     4     6   ar
    15     4     3    1
    16     6     2    1
    17    26    24    1
    18    25    24    1
    19    16    15    1
    20    24    27    1
    21    24    22    1
    22    30    27    1
    23     1     9    2
    24     3    15    1
    25     3     5    2
    26    23    22    1
    27    19    18    2
    28     2     9   am
    29     2     5    1
    30    15    18    1
    31    15    17    1
    32    18    20   am
    33    20    22    1
    34    20    21    1
    35    27    28    1
    36    27    29    1
    37    22    31    1
    38     9    40    1
    39     5    36    1
    40    31    33    1
    41    31    34    1
    42    31    32    1
    43    42    41    1
    44    35    34    1
    45    40    41   ar
    46    40    48   ar
    47    36    37    1
    48    36    39    1
    49    36    38    1
    50    50    48    1
    51    41    43   ar
    52    48    47   ar
    53    43    44    1
    54    43    45   ar
    55    47    45   ar
    56    47    49    1
    57    45    46    1
@<TRIPOS>MOLECULE
yes_2066
 28 29 0 0 0
SMALL
GASTEIGER

@<TRIPOS>ATOM
      1 O         -29.0610   23.3570  -76.6940 O.2     1  LIG11      -0.4900
      2 N         -25.6900   22.4040  -76.9490 N.2     1  LIG11      -0.1320
      3 N         -26.7120   23.3450  -76.5500 N.am    1  LIG11      -0.3280
      4 C         -26.3290   21.5430  -77.9330 C.2     1  LIG11       0.1550
      5 C         -27.6860   21.7240  -77.9120 C.2     1  LIG11      -0.1940
      6 C         -28.0050   22.8600  -77.0030 C.2     1  LIG11       0.5640
      7 C         -26.5450   24.0210  -75.2840 C.ar    1  LIG11       0.2190
      8 C         -25.7700   23.3630  -74.3080 C.ar    1  LIG11      -0.2230
      9 C         -25.6250   23.9470  -73.0500 C.ar    1  LIG11      -0.0840
     10 H         -25.2750   22.4180  -74.5440 H       1  LIG11       0.1870
     11 H         -25.0260   23.4440  -72.2900 H       1  LIG11       0.1460
     12 C         -26.2380   25.1720  -72.7580 C.ar    1  LIG11      -0.2010
     13 H         -26.1190   25.6190  -71.7740 H       1  LIG11       0.1510
     14 C         -26.9930   25.8210  -73.7370 C.ar    1  LIG11      -0.0860
     15 H         -27.4620   26.7800  -73.5150 H       1  LIG11       0.1420
     16 C         -27.1490   25.2580  -75.0060 C.ar    1  LIG11      -0.2570
     17 H         -27.7160   25.7850  -75.7710 H       1  LIG11       0.1730
     18 C         -24.4540   23.0960  -77.4200 C.3     1  LIG11      -0.3310
     19 H         -23.5780   22.7210  -76.8610 H       1  LIG11       0.1740
     20 H         -24.3070   22.8430  -78.4840 H       1  LIG11       0.1630
     21 H         -24.4790   24.1910  -77.3050 H       1  LIG11       0.1550
     22 N         -28.6690   21.0620  -78.6920 N.pl3   1  LIG11      -0.4170
     23 H         -29.1020   20.2960  -78.1750 H       1  LIG11       0.2360
     24 H         -28.2820   20.6970  -79.5580 H       1  LIG11       0.2200
     25 C         -25.5270   20.5830  -78.7150 C.3     1  LIG11      -0.4790
     26 H         -24.6850   20.1880  -78.1220 H       1  LIG11       0.1830
     27 H         -25.1080   21.0380  -79.6250 H       1  LIG11       0.1770
     28 H         -26.1260   19.7090  -79.0180 H       1  LIG11       0.1770
@<TRIPOS>BOND
     1    27    25    1
     2    24    22    1
     3    28    25    1
     4    25    26    1
     5    25     4    1
     6    22    23    1
     7    22     5    1
     8    20    18    1
     9     4     5    2
    10     4     2    1
    11     5     6    1
    12    18    21    1
    13    18     2    1
    14    18    19    1
    15     6     1    2
    16     6     3   am
    17     2     3    2
    18     3     7    1
    19    17    16    1
    20     7    16   ar
    21     7     8   ar
    22    16    14   ar
    23    10     8    1
    24     8     9   ar
    25    14    15    1
    26    14    12   ar
    27     9    12   ar
    28     9    11    1
    29    12    13    1
@<TRIPOS>MOLECULE
yes_21106585
 28 28 0 0 0
SMALL
GASTEIGER

@<TRIPOS>ATOM
      1 C         -27.5030   23.1830  -76.6060 C.ar    1  LIG11      -0.2080
      2 C         -27.1680   23.6920  -75.3500 C.ar    1  LIG11      -0.2100
      3 C         -26.0300   23.2140  -74.6800 C.ar    1  LIG11       0.1220
      4 C         -25.2330   22.2170  -75.2750 C.ar    1  LIG11      -0.1660
      5 C         -25.5700   21.7080  -76.5260 C.ar    1  LIG11      -0.1630
      6 C         -26.7110   22.1870  -77.1970 C.ar    1  LIG11       0.1190
      7 H         -28.3820   23.5630  -77.1210 H       1  LIG11       0.1510
      8 H         -27.7910   24.4590  -74.8960 H       1  LIG11       0.1510
      9 H         -24.3480   21.8530  -74.7500 H       1  LIG11       0.1660
     10 H         -24.9580   20.9350  -76.9910 H       1  LIG11       0.1660
     11 N         -25.5760   23.7020  -73.3830 N.pl3   1  LIG11      -0.2730
     12 C         -26.1130   25.0700  -73.1130 C.3     1  LIG11      -0.3280
     13 H         -27.1890   25.0910  -73.3560 H       1  LIG11       0.1550
     14 H         -25.6200   25.8740  -73.6760 H       1  LIG11       0.1280
     15 H         -26.0160   25.2800  -72.0360 H       1  LIG11       0.1520
     16 C         -24.0910   23.6610  -73.2420 C.3     1  LIG11      -0.3320
     17 H         -23.5970   22.7970  -73.7100 H       1  LIG11       0.1250
     18 H         -23.6730   24.5790  -73.6860 H       1  LIG11       0.1520
     19 H         -23.8360   23.6700  -72.1700 H       1  LIG11       0.1570
     20 N         -26.9970   21.5730  -78.4910 N.pl3   1  LIG11      -0.2720
     21 C         -26.1940   20.3370  -78.7260 C.3     1  LIG11      -0.3320
     22 H         -26.8210   19.4560  -78.5130 H       1  LIG11       0.1560
     23 H         -25.3560   20.3230  -78.0100 H       1  LIG11       0.1520
     24 H         -25.7800   20.2320  -79.7400 H       1  LIG11       0.1250
     25 C         -28.4600   21.3030  -78.6340 C.3     1  LIG11      -0.3290
     26 H         -28.9790   21.6910  -77.7430 H       1  LIG11       0.1510
     27 H         -28.9220   21.7440  -79.5300 H       1  LIG11       0.1280
     28 H         -28.6230   20.2140  -78.6610 H       1  LIG11       0.1560
@<TRIPOS>BOND
     1    24    21    1
     2    27    25    1
     3    21    22    1
     4    21    20    1
     5    21    23    1
     6    28    25    1
     7    25    20    1
     8    25    26    1
     9    20     6    1
    10     6     1   ar
    11     6     5   ar
    12     7     1    1
    13    10     5    1
    14     1     2   ar
    15     5     4   ar
    16     2     8    1
    17     2     3   ar
    18     4     9    1
    19     4     3   ar
    20     3    11    1
    21    17    16    1
    22    18    16    1
    23    14    12    1
    24    11    16    1
    25    11    12    1
    26    13    12    1
    27    16    19    1
    28    12    15    1
@<TRIPOS>MOLECULE
yes_2121
 26 27 0 0 0
SMALL
GASTEIGER

@<TRIPOS>ATOM
      1 O         -29.4560   23.2900  -76.5460 O.2     1  LIG11      -0.4850
      2 N         -27.1170   23.4280  -76.7370 N.am    1  LIG11      -0.3560
      3 N         -26.1090   22.5590  -77.2890 N.2     1  LIG11      -0.1500
      4 C         -26.8240   21.6260  -78.1330 C.2     1  LIG11       0.3020
      5 C         -28.4430   22.8310  -77.0080 C.2     1  LIG11       0.6310
      6 C         -28.1660   21.7220  -77.9230 C.2     1  LIG11      -0.5240
      7 H         -28.9560   21.1070  -78.3140 H       1  LIG11       0.2130
      8 C         -26.8180   24.0780  -75.4830 C.ar    1  LIG11       0.2260
      9 C         -26.0430   23.3430  -74.5620 C.ar    1  LIG11      -0.2270
     10 C         -25.7580   23.8990  -73.3170 C.ar    1  LIG11      -0.0810
     11 H         -25.6550   22.3580  -74.8360 H       1  LIG11       0.1880
     12 H         -25.1530   23.3380  -72.6050 H       1  LIG11       0.1450
     13 C         -26.2370   25.1700  -72.9780 C.ar    1  LIG11      -0.2060
     14 H         -26.0090   25.5930  -72.0030 H       1  LIG11       0.1510
     15 C         -26.9990   25.8940  -73.8980 C.ar    1  LIG11      -0.0820
     16 H         -27.3640   26.8880  -73.6410 H       1  LIG11       0.1410
     17 C         -27.2900   25.3600  -75.1570 C.ar    1  LIG11      -0.2670
     18 H         -27.8570   25.9450  -75.8770 H       1  LIG11       0.1710
     19 C         -24.9900   23.3150  -77.9210 C.3     1  LIG11      -0.3230
     20 H         -24.0260   22.9560  -77.5140 H       1  LIG11       0.1770
     21 H         -24.9960   23.1120  -79.0040 H       1  LIG11       0.1610
     22 H         -25.0360   24.4030  -77.7520 H       1  LIG11       0.1550
     23 C         -26.0780   20.6840  -78.9920 C.3     1  LIG11      -0.5200
     24 H         -26.7060   20.2990  -79.8120 H       1  LIG11       0.1890
     25 H         -25.7180   19.8090  -78.4250 H       1  LIG11       0.1890
     26 H         -25.1990   21.1590  -79.4570 H       1  LIG11       0.1830
@<TRIPOS>BOND
     1    24    23    1
     2    26    23    1
     3    21    19    1
     4    23    25    1
     5    23     4    1
     6     7     6    1
     7     4     6    2
     8     4     3    1
     9     6     5    1
    10    19    22    1
    11    19    20    1
    12    19     3    1
    13     3     2    2
    14     5     2   am
    15     5     1    2
    16     2     8    1
    17    18    17    1
    18     8    17   ar
    19     8     9   ar
    20    17    15   ar
    21    11     9    1
    22     9    10   ar
    23    15    16    1
    24    15    13   ar
    25    10    13   ar
    26    10    12    1
    27    13    14    1
@<TRIPOS>MOLECULE
yes_21386
 31 32 0 0 0
SMALL
GASTEIGER

@<TRIPOS>ATOM
      1 C         -27.4330   21.3120  -78.6510 C.ar    1  LIG11      -0.0010
      2 C         -26.9190   22.9180  -76.4050 C.ar    1  LIG11       0.0090
      3 C         -28.4810   21.9990  -78.0190 C.ar    1  LIG11      -0.1650
      4 C         -26.1270   21.4400  -78.1600 C.ar    1  LIG11      -0.1750
      5 C         -28.2260   22.7970  -76.9040 C.ar    1  LIG11      -0.1480
      6 C         -25.8700   22.2380  -77.0430 C.ar    1  LIG11      -0.1500
      7 H         -29.5000   21.9120  -78.3990 H       1  LIG11       0.1620
      8 H         -25.3010   20.9260  -78.6520 H       1  LIG11       0.1530
      9 H         -29.0450   23.3240  -76.4110 H       1  LIG11       0.1600
     10 H         -24.8520   22.3400  -76.6700 H       1  LIG11       0.1580
     11 C         -26.6490   23.7570  -75.2160 C.ar    1  LIG11       0.0070
     12 C         -27.2860   24.9990  -75.0680 C.ar    1  LIG11      -0.1660
     13 H         -27.9760   25.3500  -75.8330 H       1  LIG11       0.1540
     14 C         -27.0260   25.7860  -73.9430 C.ar    1  LIG11      -0.1300
     15 H         -27.5200   26.7500  -73.8310 H       1  LIG11       0.1470
     16 C         -26.1330   25.3400  -72.9630 C.ar    1  LIG11      -0.1510
     17 H         -25.9330   25.9550  -72.0880 H       1  LIG11       0.1480
     18 C         -25.4990   24.1010  -73.1090 C.ar    1  LIG11      -0.1300
     19 C         -25.7520   23.3100  -74.2320 C.ar    1  LIG11      -0.1670
     20 H         -24.8050   23.7530  -72.3450 H       1  LIG11       0.1470
     21 H         -25.2610   22.3450  -74.3410 H       1  LIG11       0.1530
     22 C         -27.7000   20.4540  -79.8650 C.3     1  LIG11      -0.2250
     23 H         -26.8120   20.4850  -80.5560 H       1  LIG11       0.1720
     24 C         -28.9210   20.9620  -80.6330 C.3     1  LIG11      -0.4420
     25 H         -29.0620   20.4040  -81.5660 H       1  LIG11       0.1590
     26 H         -29.8380   20.8620  -80.0330 H       1  LIG11       0.1690
     27 H         -28.8280   22.0240  -80.8940 H       1  LIG11       0.1640
     28 C         -27.8940   18.9860  -79.4930 C.2     1  LIG11       0.6240
     29 O         -27.0620   18.1180  -79.4680 O.2     1  LIG11      -0.4430
     30 O         -29.1640   18.6250  -79.0850 O.3     1  LIG11      -0.5280
     31 H         -29.6860   18.1040  -79.7380 H       1  LIG11       0.3350
@<TRIPOS>BOND
     1    25    24    1
     2    27    24    1
     3    24    26    1
     4    24    22    1
     5    23    22    1
     6    22    28    1
     7    22     1    1
     8    31    30    1
     9    28    29    2
    10    28    30    1
    11     8     4    1
    12     1     4   ar
    13     1     3   ar
    14     7     3    1
    15     4     6   ar
    16     3     5   ar
    17     6    10    1
    18     6     2   ar
    19     5     9    1
    20     5     2   ar
    21     2    11    1
    22    13    12    1
    23    11    12   ar
    24    11    19   ar
    25    12    14   ar
    26    21    19    1
    27    19    18   ar
    28    14    15    1
    29    14    16   ar
    30    18    16   ar
    31    18    20    1
    32    16    17    1
@<TRIPOS>MOLECULE
yes_2157
 21 21 0 0 0
SMALL
GASTEIGER

@<TRIPOS>ATOM
      1 C         -25.7230   23.3480  -74.9520 C.ar    1  LIG11       0.3810
      2 C         -26.1830   23.1200  -76.2580 C.ar    1  LIG11      -0.3570
      3 C         -24.3650   23.2400  -74.6150 C.ar    1  LIG11      -0.3340
      4 C         -25.2440   22.7880  -77.2480 C.ar    1  LIG11       0.0100
      5 C         -23.4550   22.8980  -75.6150 C.ar    1  LIG11      -0.0020
      6 C         -23.8930   22.6650  -76.9260 C.ar    1  LIG11      -0.2470
      7 H         -24.0300   23.4600  -73.6040 H       1  LIG11       0.1800
      8 H         -25.5800   22.6300  -78.2760 H       1  LIG11       0.1560
      9 H         -22.3920   22.8210  -75.3760 H       1  LIG11       0.1490
     10 H         -23.1730   22.4010  -77.7000 H       1  LIG11       0.1690
     11 O         -26.6630   23.7730  -74.0320 O.3     1  LIG11      -0.4620
     12 C         -26.5640   24.9860  -73.3030 C.2     1  LIG11       0.6820
     13 O         -26.8610   25.9490  -73.9490 O.2     1  LIG11      -0.3960
     14 C         -26.1780   24.8930  -71.8720 C.3     1  LIG11      -0.6290
     15 H         -25.6170   23.9680  -71.6630 H       1  LIG11       0.2100
     16 H         -27.0300   24.9240  -71.1790 H       1  LIG11       0.2020
     17 H         -25.5060   25.7290  -71.6010 H       1  LIG11       0.2140
     18 C         -27.6140   23.2940  -76.6360 C.2     1  LIG11       0.6810
     19 O         -28.3500   22.5080  -77.1630 O.2     1  LIG11      -0.4080
     20 O         -28.1570   24.5150  -76.2700 O.3     1  LIG11      -0.5260
     21 H         -27.5980   25.0560  -75.6710 H       1  LIG11       0.3260
@<TRIPOS>BOND
     1     8     4    1
     2    10     6    1
     3     4     6   ar
     4     4     2   ar
     5    19    18    2
     6     6     5   ar
     7    18    20    1
     8    18     2    1
     9    20    21    1
    10     2     1   ar
    11     5     9    1
    12     5     3   ar
    13     1     3   ar
    14     1    11    1
    15     3     7    1
    16    11    12    1
    17    13    12    2
    18    12    14    1
    19    14    15    1
    20    14    17    1
    21    14    16    1
@<TRIPOS>MOLECULE
yes_23122887
 59 62 0 0 0
SMALL
GASTEIGER

@<TRIPOS>ATOM
      1 N         -28.4160   11.9940  -80.3560 N.am    1  LIG11      -0.3300
      2 C         -28.2410   10.5740  -80.5290 C.2     1  LIG11       0.1890
      3 C         -28.0370   10.2960  -81.8670 C.2     1  LIG11      -0.1580
      4 C         -28.2930   12.5920  -81.6630 C.ar    1  LIG11      -0.0120
      5 C         -28.0660   11.5490  -82.6050 C.ar    1  LIG11       0.0790
      6 C         -28.6440   12.7650  -79.1780 C.2     1  LIG11       0.6080
      7 C         -28.3770   13.9390  -82.0580 C.ar    1  LIG11      -0.0650
      8 C         -27.9370   11.8390  -83.9690 C.ar    1  LIG11      -0.3970
      9 O         -28.6330   13.9750  -79.2460 O.2     1  LIG11      -0.4680
     10 C         -28.0500   13.1770  -84.3470 C.ar    1  LIG11       0.3360
     11 C         -28.2580   14.2260  -83.4060 C.ar    1  LIG11      -0.2810
     12 H         -28.5300   14.7280  -81.3160 H       1  LIG11       0.1830
     13 H         -27.7240   11.0450  -84.6820 H       1  LIG11       0.1950
     14 H         -28.3190   15.2490  -83.7760 H       1  LIG11       0.1840
     15 C         -27.7850    8.9730  -82.4830 C.3     1  LIG11      -0.3770
     16 H         -27.3070    8.2660  -81.7710 H       1  LIG11       0.1740
     17 H         -27.0480    9.0900  -83.3180 H       1  LIG11       0.2000
     18 C         -29.0390    8.3380  -83.0670 C.2     1  LIG11       0.6170
     19 N         -29.4120    8.7810  -84.3370 N.am    1  LIG11      -0.5190
     20 H         -28.8760    9.4860  -84.8320 H       1  LIG11       0.2770
     21 O         -29.6910    7.4990  -82.4710 O.2     1  LIG11      -0.5560
     22 CA        -30.6060    8.2230  -85.0190 C.3     1  LIG11       0.0060
     23 HA        -31.2920    7.8090  -84.2180 H       1  LIG11       0.1880
     24 C         -30.2040    7.0490  -85.9450 C.3     1  LIG11      -0.0340
     25 H1        -30.0600    6.1200  -85.3600 H       1  LIG11       0.1580
     26 H2        -30.9360    6.8680  -86.7500 H       1  LIG11       0.1190
     27 O         -28.9150    7.2790  -86.5170 O.3     1  LIG11      -0.5470
     28 H         -28.9900    7.9040  -87.2790 H       1  LIG11       0.3210
     29 C         -31.3040    9.3170  -85.8030 C.ar    1  LIG11      -0.0190
     30 C         -32.6290    9.1660  -86.2330 C.ar    1  LIG11      -0.1770
     31 C         -33.2520   10.1860  -86.9580 C.ar    1  LIG11      -0.1300
     32 H         -33.1820    8.2580  -86.0020 H       1  LIG11       0.1440
     33 H         -34.2810   10.0670  -87.2890 H       1  LIG11       0.1450
     34 C         -32.5550   11.3610  -87.2570 C.ar    1  LIG11      -0.1490
     35 H         -33.0410   12.1560  -87.8190 H       1  LIG11       0.1480
     36 C         -31.2310   11.5130  -86.8320 C.ar    1  LIG11      -0.1290
     37 H         -30.6850   12.4260  -87.0650 H       1  LIG11       0.1480
     38 C         -30.6040   10.4940  -86.1090 C.ar    1  LIG11      -0.1560
     39 H         -29.5700   10.6150  -85.7870 H       1  LIG11       0.1590
     40 C         -28.2610    9.6120  -79.4100 C.3     1  LIG11      -0.5020
     41 H         -28.8870    9.9540  -78.5710 H       1  LIG11       0.1820
     42 H         -28.6650    8.6370  -79.7280 H       1  LIG11       0.1770
     43 H         -27.2540    9.4140  -79.0110 H       1  LIG11       0.1830
     44 O         -27.9800   13.6440  -85.6360 O.3     1  LIG11      -0.3690
     45 C         -27.6350   12.6950  -86.6790 C.3     1  LIG11      -0.1960
     46 H         -26.5440   12.6070  -86.7670 H       1  LIG11       0.1580
     47 H         -28.0720   11.7680  -86.2900 H       1  LIG11       0.1610
     48 H         -28.0990   12.9830  -87.6270 H       1  LIG11       0.1430
     49 C         -28.9240   12.0360  -77.9010 C.ar    1  LIG11      -0.1760
     50 C         -30.2490   11.7130  -77.5730 C.ar    1  LIG11      -0.0680
     51 H         -31.0600   11.9520  -78.2630 H       1  LIG11       0.1610
     52 C         -30.5270   11.0910  -76.3530 C.ar    1  LIG11      -0.2030
     53 H         -31.5520   10.8350  -76.0820 H       1  LIG11       0.1790
     54 C         -29.4690   10.8130  -75.4830 C.ar    1  LIG11       0.0910
     55 CL        -29.8060   10.0340  -73.9850 Cl      1  LIG11      -0.0750
     56 C         -28.1470   11.1470  -75.7900 C.ar    1  LIG11      -0.2010
     57 C         -27.8760   11.7710  -77.0100 C.ar    1  LIG11      -0.0630
     58 H         -27.3430   10.9330  -75.0840 H       1  LIG11       0.1800
     59 H         -26.8520   12.0540  -77.2630 H       1  LIG11       0.1640
@<TRIPOS>BOND
     1    35    34    1
     2    48    45    1
     3    33    31    1
     4    28    27    1
     5    34    31   ar
     6    34    36   ar
     7    37    36    1
     8    31    30   ar
     9    36    38   ar
    10    46    45    1
    11    26    24    1
    12    45    47    1
    13    45    44    1
    14    27    24    1
    15    30    32    1
    16    30    29   ar
    17    38    29   ar
    18    38    39    1
    19    24    25    1
    20    24    22    1
    21    29    22    1
    22    44    10    1
    23    22    19    1
    24    22    23    1
    25    20    19    1
    26    13     8    1
    27    10     8   ar
    28    10    11   ar
    29    19    18   am
    30     8     5   ar
    31    14    11    1
    32    11     7   ar
    33    17    15    1
    34    18    15    1
    35    18    21    2
    36     5     3    1
    37     5     4   ar
    38    15     3    1
    39    15    16    1
    40     7     4   ar
    41     7    12    1
    42     3     2    2
    43     4     1    1
    44     2     1    1
    45     2    40    1
    46     1     6   am
    47    42    40    1
    48    40    43    1
    49    40    41    1
    50     9     6    2
    51     6    49    1
    52    51    50    1
    53    49    50   ar
    54    49    57   ar
    55    50    52   ar
    56    59    57    1
    57    57    56   ar
    58    52    53    1
    59    52    54   ar
    60    56    54   ar
    61    56    58    1
    62    54    55    1
@<TRIPOS>MOLECULE
yes_23122889
 59 61 0 0 0
SMALL
GASTEIGER

@<TRIPOS>ATOM
      1 N         -28.2200   13.2950  -83.2810 N.am    0  UNK0       -0.3390
      2 C         -28.0100   14.0700  -82.0780 C.2     0  UNK0        0.2260
      3 C         -27.9580   13.2240  -80.9910 C.2     0  UNK0       -0.1920
      4 C         -28.2660   11.9090  -82.8890 C.ar    0  UNK0       -0.0090
      5 C         -28.1160   11.8580  -81.4680 C.ar    0  UNK0        0.0890
      6 C         -28.3500   13.8600  -84.5840 C.2     0  UNK0        0.6170
      7 C         -28.3840   10.7310  -83.6410 C.ar    0  UNK0       -0.0960
      8 C         -28.1130   10.6380  -80.7870 C.ar    0  UNK0       -0.3580
      9 O         -28.1160   15.0380  -84.7520 O.2     0  UNK0       -0.4830
     10 C         -28.2530    9.4830  -81.5560 C.ar    0  UNK0        0.3240
     11 C         -28.3830    9.5180  -82.9700 C.ar    0  UNK0       -0.2720
     12 H         -28.4640   10.7480  -84.7260 H       0  UNK0        0.1630
     13 H         -27.9940   10.6160  -79.7050 H       0  UNK0        0.1970
     14 H         -28.4730    8.5760  -83.5080 H       0  UNK0        0.1810
     15 C         -27.7870   13.5810  -79.5630 C.3     0  UNK0       -0.3670
     16 H         -27.4820   14.6530  -79.4780 H       0  UNK0        0.1960
     17 H         -26.9670   13.0060  -79.0850 H       0  UNK0        0.1730
     18 C         -29.0900   13.3990  -78.7970 C.2     0  UNK0        0.6150
     19 O         -30.1210   13.9890  -79.0750 O.2     0  UNK0       -0.5620
     20 N         -29.0180   12.5490  -77.6850 N.am    1  MET1       -0.5280
     21 H         -28.2340   11.9050  -77.5950 H       1  MET1        0.2780
     22 CA        -30.2610   12.1680  -76.9600 C.3     1  MET1        0.0290
     23 HA        -31.1250   12.7340  -77.4240 H       1  MET1        0.1570
     24 CB        -30.5540   10.6610  -77.0940 C.3     1  MET1       -0.3010
     25 HB1       -29.6070   10.1230  -77.3160 H       1  MET1        0.1580
     26 HB2       -31.1860   10.5120  -77.9950 H       1  MET1        0.1580
     27 CG        -31.2290   10.0490  -75.8750 C.3     1  MET1       -0.2920
     28 HG1       -30.5070    9.5260  -75.2220 H       1  MET1        0.1510
     29 HG2       -31.7080   10.8330  -75.2480 H       1  MET1        0.1890
     30 SD        -32.4450    8.8070  -76.4090 S.3     1  MET1       -0.0790
     31 CE        -33.9970    9.4430  -75.7350 C.3     1  MET1       -0.4960
     32 HE1       -34.0070   10.5360  -75.6870 H       1  MET1        0.1700
     33 HE2       -34.1960    9.0460  -74.7350 H       1  MET1        0.1720
     34 HE3       -34.8080    9.1180  -76.4010 H       1  MET1        0.1790
     35 C         -30.1590   12.6430  -75.4900 C.3     1  MET1       -0.0340
     36 H1        -30.6430   13.6300  -75.3660 H       1  MET1        0.1310
     37 H2        -30.6220   11.9120  -74.8000 H       1  MET1        0.1480
     38 O         -28.8090   12.7230  -75.0160 O.3     1  MET1       -0.5440
     39 H         -28.3820   11.8430  -75.0840 H       1  MET1        0.3110
     40 C         -27.8940   15.5390  -82.1230 C.3     0  UNK0       -0.5050
     41 H         -28.1440   15.9400  -83.1220 H       0  UNK0        0.1940
     42 H         -28.5440   16.0340  -81.3910 H       0  UNK0        0.1680
     43 H         -26.8540   15.8720  -81.9410 H       0  UNK0        0.1980
     44 O         -28.2760    8.1980  -81.0660 O.3     0  UNK0       -0.3730
     45 C         -28.4000    8.0240  -79.6320 C.3     0  UNK0       -0.1890
     46 H         -27.4150    8.0660  -79.1580 H       0  UNK0        0.1430
     47 H         -29.0090    8.8930  -79.3540 H       0  UNK0        0.1590
     48 H         -28.9200    7.0890  -79.4040 H       0  UNK0        0.1450
     49 C         -28.7930   12.9550  -85.6870 C.ar    0  UNK0       -0.1960
     50 C         -30.1350   12.5580  -85.7700 C.ar    0  UNK0       -0.0500
     51 H         -30.8500   12.8650  -85.0030 H       0  UNK0        0.1630
     52 C         -30.5560   11.7570  -86.8340 C.ar    0  UNK0       -0.2090
     53 H         -31.5950   11.4380  -86.9130 H       0  UNK0        0.1810
     54 C         -29.6170   11.3710  -87.7960 C.ar    0  UNK0        0.0990
     55 CL        -30.1280   10.3690  -89.1020 Cl      0  UNK0       -0.0770
     56 C         -28.2790   11.7680  -87.7330 C.ar    0  UNK0       -0.2100
     57 C         -27.8680   12.5750  -86.6690 C.ar    0  UNK0       -0.0470
     58 H         -27.5700   11.4570  -88.5020 H       0  UNK0        0.1810
     59 H         -26.8290   12.9070  -86.6040 H       0  UNK0        0.1640
@<TRIPOS>BOND
     1    55    54    1
     2    58    56    1
     3    54    56   ar
     4    54    52   ar
     5    56    57   ar
     6    53    52    1
     7    52    50   ar
     8    57    59    1
     9    57    49   ar
    10    50    49   ar
    11    50    51    1
    12    49     6    1
    13     9     6    2
    14    12     7    1
    15     6     1   am
    16     7    11   ar
    17     7     4   ar
    18    14    11    1
    19     1     4    1
    20     1     2    1
    21    41    40    1
    22    11    10   ar
    23     4     5   ar
    24    40     2    1
    25    40    43    1
    26    40    42    1
    27     2     3    2
    28    10    44    1
    29    10     8   ar
    30     5     3    1
    31     5     8   ar
    32    44    45    1
    33     3    15    1
    34     8    13    1
    35    45    48    1
    36    45    47    1
    37    45    46    1
    38    15    16    1
    39    15    17    1
    40    15    18    1
    41    19    18    2
    42    18    20   am
    43    26    24    1
    44    20    21    1
    45    20    22    1
    46    23    22    1
    47    25    24    1
    48    24    22    1
    49    24    27    1
    50    22    35    1
    51    30    27    1
    52    30    31    1
    53    34    31    1
    54    27    29    1
    55    27    28    1
    56    31    32    1
    57    31    33    1
    58    35    36    1
    59    35    38    1
    60    35    37    1
    61    39    38    1
@<TRIPOS>MOLECULE
yes_23122978
 52 54 0 0 0
SMALL
GASTEIGER

@<TRIPOS>ATOM
      1 N         -28.3250   11.9300  -81.9400 N.am    0  UNK0       -0.3330
      2 C         -28.7610   13.2950  -82.0940 C.2     0  UNK0        0.1950
      3 C         -29.0100   13.8400  -80.8490 C.2     0  UNK0       -0.1660
      4 C         -28.3070   11.6550  -80.5230 C.ar    0  UNK0       -0.0050
      5 C         -28.7290   12.8310  -79.8410 C.ar    0  UNK0        0.0680
      6 C         -27.9430   10.9600  -82.9130 C.2     0  UNK0        0.6090
      7 C         -27.9630   10.4830  -79.8290 C.ar    0  UNK0       -0.0700
      8 C         -28.8250   12.8500  -78.4440 C.ar    0  UNK0       -0.3640
      9 O         -27.5760    9.8640  -82.5440 O.2     0  UNK0       -0.4680
     10 C         -28.4840   11.6770  -77.7740 C.ar    0  UNK0        0.3240
     11 C         -28.0540   10.4990  -78.4480 C.ar    0  UNK0       -0.2760
     12 H         -27.6340    9.5900  -80.3690 H       0  UNK0        0.1850
     13 H         -29.1410   13.7510  -77.9300 H       0  UNK0        0.1850
     14 H         -27.8010    9.6220  -77.8530 H       0  UNK0        0.1830
     15 C         -29.4650   15.2140  -80.5380 C.3     0  UNK0       -0.3790
     16 H         -29.9480   15.2740  -79.5380 H       0  UNK0        0.1770
     17 H         -30.2620   15.5170  -81.2620 H       0  UNK0        0.1980
     18 C         -28.3580   16.2600  -80.6070 C.2     0  UNK0        0.6160
     19 N         -28.7730   17.5990  -80.5780 N.am    1  ALA1       -0.5320
     20 H         -29.7080   17.8080  -80.2240 H       1  ALA1        0.2780
     21 O         -27.1900   15.9450  -80.7680 O.2     0  UNK0       -0.5640
     22 CA        -27.7910   18.7170  -80.4450 C.3     1  ALA1        0.0960
     23 HA        -26.8080   18.3250  -80.8230 H       1  ALA1        0.1360
     24 C         -27.6230   19.0900  -78.9540 C.3     1  ALA1       -0.0460
     25 H1        -27.7300   20.1780  -78.7930 H       1  ALA1        0.1490
     26 H2        -28.3320   18.5440  -78.3040 H       1  ALA1        0.1530
     27 O         -26.2770   18.8330  -78.5370 O.3     1  ALA1       -0.5460
     28 H         -25.7970   19.6780  -78.4200 H       1  ALA1        0.3100
     29 CB        -28.2160   19.9390  -81.2600 C.3     1  ALA1       -0.5400
     30 HB1       -29.0720   19.7160  -81.9060 H       1  ALA1        0.1640
     31 HB2       -28.4990   20.7780  -80.6150 H       1  ALA1        0.1660
     32 HB3       -27.3930   20.2840  -81.9070 H       1  ALA1        0.1840
     33 C         -28.9020   13.9610  -83.4040 C.3     0  UNK0       -0.5040
     34 H         -29.3840   13.3160  -84.1550 H       0  UNK0        0.1830
     35 H         -29.5210   14.8700  -83.3270 H       0  UNK0        0.1780
     36 H         -27.9310   14.2780  -83.8180 H       0  UNK0        0.1840
     37 C         -28.0220   11.3300  -84.3590 C.ar    0  UNK0       -0.1770
     38 C         -29.1860   11.0330  -85.0830 C.ar    0  UNK0       -0.0670
     39 H         -30.0480   10.5900  -84.5820 H       0  UNK0        0.1620
     40 C         -29.2340   11.2960  -86.4540 C.ar    0  UNK0       -0.2010
     41 H         -30.1300   11.0700  -87.0330 H       0  UNK0        0.1800
     42 C         -28.1080   11.8460  -87.0740 C.ar    0  UNK0        0.0900
     43 CL        -28.1630   12.1720  -88.7630 Cl      0  UNK0       -0.0740
     44 C         -26.9380   12.1360  -86.3660 C.ar    0  UNK0       -0.2010
     45 C         -26.8960   11.8690  -84.9960 C.ar    0  UNK0       -0.0650
     46 H         -26.0700   12.5550  -86.8780 H       0  UNK0        0.1800
     47 H         -25.9870   12.0710  -84.4270 H       0  UNK0        0.1630
     48 O         -28.5250   11.4980  -76.4090 O.3     0  UNK0       -0.3720
     49 C         -29.5750   12.1700  -75.6710 C.3     0  UNK0       -0.1900
     50 H         -30.5460   12.0010  -76.1480 H       0  UNK0        0.1400
     51 H         -29.5210   11.6670  -74.6970 H       0  UNK0        0.1610
     52 H         -29.3490   13.2360  -75.5750 H       0  UNK0        0.1430
@<TRIPOS>BOND
     1    43    42    1
     2    42    40   ar
     3    42    44   ar
     4    41    40    1
     5    46    44    1
     6    40    38   ar
     7    44    45   ar
     8    38    39    1
     9    38    37   ar
    10    45    47    1
    11    45    37   ar
    12    37     6    1
    13    34    33    1
    14    36    33    1
    15    33    35    1
    16    33     2    1
    17     6     9    2
    18     6     1   am
    19     2     1    1
    20     2     3    2
    21     1     4    1
    22    32    29    1
    23    30    29    1
    24    17    15    1
    25    29    31    1
    26    29    22    1
    27     3    15    1
    28     3     5    1
    29    23    22    1
    30    21    18    2
    31    18    19   am
    32    18    15    1
    33    19    22    1
    34    19    20    1
    35    15    16    1
    36     4     5   ar
    37     4     7   ar
    38    22    24    1
    39    12     7    1
    40     5     8   ar
    41     7    11   ar
    42    24    25    1
    43    24    27    1
    44    24    26    1
    45    27    28    1
    46    11    14    1
    47    11    10   ar
    48     8    13    1
    49     8    10   ar
    50    10    48    1
    51    48    49    1
    52    50    49    1
    53    49    52    1
    54    49    51    1
@<TRIPOS>MOLECULE
yes_2483
 31 33 0 0 0
SMALL
GASTEIGER

@<TRIPOS>ATOM
      1 CL        -26.1370   25.2970  -71.9570 Cl      1  LIG11      -0.0980
      2 N         -24.5430   21.6840  -76.3030 N.4     1  LIG11      -0.3290
      3 C         -26.7210   22.4800  -76.4120 C.3     1  LIG11      -0.1240
      4 C         -25.7350   21.6550  -77.0590 C.3     1  LIG11       0.1870
      5 C         -26.0930   23.0420  -75.2310 C.3     1  LIG11      -0.0530
      6 C         -27.2860   21.0960  -78.7870 C.3     1  LIG11       0.1240
      7 C         -24.7430   22.5410  -75.1950 C.3     1  LIG11       0.1330
      8 C         -26.0100   20.9560  -78.2400 C.3     1  LIG11      -0.3050
      9 C         -27.9900   22.5920  -76.9820 C.3     1  LIG11      -0.0420
     10 C         -28.2650   21.9040  -78.1620 C.3     1  LIG11      -0.2750
     11 C         -26.5340   23.9020  -74.2240 C.3     1  LIG11      -0.1260
     12 C         -23.8470   22.8900  -74.1750 C.3     1  LIG11      -0.2270
     13 C         -25.6260   24.2350  -73.2210 C.3     1  LIG11      -0.0040
     14 C         -24.3060   23.7480  -73.1800 C.3     1  LIG11      -0.1120
     15 H         -25.2520   20.3340  -78.7190 H       1  LIG11       0.1960
     16 H         -23.6730   21.2570  -76.5630 H       1  LIG11       0.2820
     17 H         -28.7510   23.2100  -76.5070 H       1  LIG11       0.1490
     18 H         -29.2540   21.9870  -78.6060 H       1  LIG11       0.1570
     19 H         -27.5480   24.2970  -74.2250 H       1  LIG11       0.1720
     20 H         -22.8310   22.5060  -74.1590 H       1  LIG11       0.1660
     21 H         -23.6450   24.0480  -72.3660 H       1  LIG11       0.1660
     22 C         -27.6700   20.3560  -80.0540 C.3     1  LIG11      -0.2370
     23 H         -26.8270   20.4390  -80.7880 H       1  LIG11       0.1570
     24 C         -27.9510   18.8780  -79.7910 C.2     1  LIG11       0.6340
     25 O         -27.2670   17.9240  -80.0520 O.2     1  LIG11      -0.4440
     26 O         -29.1370   18.6130  -79.1330 O.3     1  LIG11      -0.5270
     27 H         -29.7240   19.3830  -78.9810 H       1  LIG11       0.3270
     28 C         -28.9230   20.9750  -80.6790 C.3     1  LIG11      -0.4480
     29 H         -29.7850   20.9270  -80.0040 H       1  LIG11       0.1570
     30 H         -28.7610   22.0310  -80.9400 H       1  LIG11       0.1740
     31 H         -29.1960   20.4520  -81.6060 H       1  LIG11       0.1680
@<TRIPOS>BOND
     1    31    28    1
     2    30    28    1
     3    23    22    1
     4    28    22    1
     5    28    29    1
     6    22    24    1
     7    22     6    1
     8    25    24    2
     9    24    26    1
    10    26    27    1
    11     6     8    1
    12     6    10    1
    13    15     8    1
    14    18    10    1
    15     8     4    1
    16    10     9    1
    17     4     3    1
    18     4     2    1
    19     9    17    1
    20     9     3    1
    21    16     2    1
    22     3     5    1
    23     2     7    1
    24     5     7    1
    25     5    11    1
    26     7    12    1
    27    19    11    1
    28    11    13    1
    29    12    20    1
    30    12    14    1
    31    13    14    1
    32    13     1    1
    33    14    21    1
@<TRIPOS>MOLECULE
yes_25057753
 31 32 0 0 0
SMALL
GASTEIGER

@<TRIPOS>ATOM
      1 C         -24.4800   22.6770  -75.1400 C.ar    1  LIG11      -0.1280
      2 C         -28.5470   22.0120  -78.1020 C.ar    1  LIG11      -0.1870
      3 C         -24.7150   21.9250  -76.2640 C.ar    1  LIG11      -0.1730
      4 C         -28.3260   22.7350  -76.9590 C.ar    1  LIG11      -0.1250
      5 C         -26.7750   23.5030  -75.1580 C.ar    1  LIG11      -0.1430
      6 C         -26.2590   21.1870  -78.0810 C.ar    1  LIG11      -0.2150
      7 C         -25.5250   23.4760  -74.5970 C.ar    1  LIG11      -0.0460
      8 C         -27.4980   21.2260  -78.6770 C.ar    1  LIG11       0.0290
      9 C         -27.0410   22.7250  -76.3300 C.ar    1  LIG11      -0.0080
     10 C         -26.0010   21.9400  -76.8930 C.ar    1  LIG11       0.0410
     11 H         -23.5050   22.6620  -74.6530 H       1  LIG11       0.1590
     12 H         -29.5230   22.0280  -78.5900 H       1  LIG11       0.1650
     13 H         -23.9280   21.3050  -76.6930 H       1  LIG11       0.1560
     14 H         -29.1220   23.3330  -76.5140 H       1  LIG11       0.1570
     15 H         -27.5780   24.1120  -74.7380 H       1  LIG11       0.1690
     16 H         -25.4460   20.5980  -78.5030 H       1  LIG11       0.1600
     17 C         -27.7570   20.4640  -79.9560 C.3     1  LIG11      -0.2320
     18 H         -26.8670   20.5430  -80.6380 H       1  LIG11       0.1730
     19 C         -28.9710   21.0430  -80.6850 C.3     1  LIG11      -0.4410
     20 H         -29.2130   20.4590  -81.5810 H       1  LIG11       0.1590
     21 H         -29.8580   21.0530  -80.0350 H       1  LIG11       0.1710
     22 H         -28.7990   22.0790  -81.0040 H       1  LIG11       0.1650
     23 C         -27.9670   18.9720  -79.7040 C.2     1  LIG11       0.6250
     24 O         -27.2070   18.0730  -79.9480 O.2     1  LIG11      -0.4420
     25 O         -29.1430   18.6230  -79.0720 O.3     1  LIG11      -0.5270
     26 H         -29.7690   19.3640  -78.8950 H       1  LIG11       0.3350
     27 S         -25.2450   24.4070  -73.1260 S.3     1  LIG11      -0.0300
     28 C         -26.9060   24.9760  -72.6890 C.3     1  LIG11      -0.4970
     29 H         -27.2090   24.6370  -71.6930 H       1  LIG11       0.1710
     30 H         -27.6020   24.5520  -73.4250 H       1  LIG11       0.1820
     31 H         -26.9870   26.0680  -72.7310 H       1  LIG11       0.1760
@<TRIPOS>BOND
     1    20    19    1
     2    22    19    1
     3    19    21    1
     4    19    17    1
     5    18    17    1
     6    17    23    1
     7    17     8    1
     8    24    23    2
     9    23    25    1
    10    25    26    1
    11     8     2   ar
    12     8     6   ar
    13    12     2    1
    14    16     6    1
    15     2     4   ar
    16     6    10   ar
    17     4    14    1
    18     4     9   ar
    19    10     9   ar
    20    10     3   ar
    21    13     3    1
    22     9     5   ar
    23     3     1   ar
    24     5    15    1
    25     5     7   ar
    26     1    11    1
    27     1     7   ar
    28     7    27    1
    29    30    28    1
    30    27    28    1
    31    31    28    1
    32    28    29    1
@<TRIPOS>MOLECULE
yes_2562
 40 42 0 0 0
SMALL
GASTEIGER

@<TRIPOS>ATOM
      1 N         -25.1270   21.3370  -78.1990 N.ar    1  LIG11      -0.0350
      2 N         -25.7170   20.8840  -79.3390 N.ar    1  LIG11      -0.1550
      3 C         -26.0910   21.8350  -77.2820 C.ar    1  LIG11       0.0480
      4 C         -27.3300   21.6630  -77.8960 C.ar    1  LIG11      -0.2310
      5 C         -27.0590   21.0700  -79.1720 C.ar    1  LIG11      -0.1060
      6 H         -28.2930   21.9300  -77.5050 H       1  LIG11       0.1950
      7 C         -23.6930   21.2550  -78.0440 C.ar    1  LIG11       0.2520
      8 C         -23.0280   22.2340  -77.2870 C.ar    1  LIG11      -0.2880
      9 H         -23.5820   23.0340  -76.7920 H       1  LIG11       0.1920
     10 C         -21.6390   22.1670  -77.1680 C.ar    1  LIG11       0.0660
     11 H         -21.1140   22.9210  -76.5690 H       1  LIG11       0.1600
     12 C         -20.9270   21.1380  -77.7920 C.ar    1  LIG11      -0.5960
     13 C         -21.6010   20.1490  -78.5150 C.ar    1  LIG11       0.0550
     14 C         -22.9900   20.1980  -78.6470 C.ar    1  LIG11      -0.2640
     15 H         -21.0410   19.3250  -78.9790 H       1  LIG11       0.1690
     16 H         -23.5240   19.4200  -79.2010 H       1  LIG11       0.1990
     17 S         -19.2020   21.0880  -77.6620 S.O2    1  LIG11       2.5010
     18 O         -18.7380   22.2490  -76.9350 O.2     1  LIG11      -0.9270
     19 O         -18.7930   19.7500  -77.2950 O.2     1  LIG11      -0.9310
     20 N         -18.6760   21.3240  -79.2840 N.3     1  LIG11      -0.9360
     21 H         -18.0720   20.6170  -79.6990 H       1  LIG11       0.2720
     22 H         -19.3630   21.6210  -79.9750 H       1  LIG11       0.2720
     23 C         -25.7790   22.4340  -75.9880 C.ar    1  LIG11      -0.0720
     24 C         -25.0110   21.7140  -75.0570 C.ar    1  LIG11      -0.0900
     25 H         -24.6340   20.7230  -75.3140 H       1  LIG11       0.1560
     26 C         -24.7330   22.2650  -73.8060 C.ar    1  LIG11      -0.2340
     27 H         -24.1350   21.7030  -73.0910 H       1  LIG11       0.1630
     28 C         -25.2240   23.5370  -73.4650 C.ar    1  LIG11       0.1530
     29 C         -25.9940   24.2530  -74.3980 C.ar    1  LIG11      -0.2320
     30 C         -26.2720   23.7050  -75.6500 C.ar    1  LIG11      -0.0910
     31 H         -26.3790   25.2390  -74.1420 H       1  LIG11       0.1620
     32 H         -26.8750   24.2650  -76.3670 H       1  LIG11       0.1530
     33 C         -24.9170   24.1270  -72.1300 C.3     1  LIG11      -0.5120
     34 H         -24.5370   25.1540  -72.2360 H       1  LIG11       0.1750
     35 H         -24.1520   23.5560  -71.5850 H       1  LIG11       0.1720
     36 H         -25.7990   24.1770  -71.4750 H       1  LIG11       0.1700
     37 C         -28.0480   20.6860  -80.2180 C.3     1  LIG11       0.5340
     38 F         -29.2660   21.2280  -80.0670 F       1  LIG11      -0.1680
     39 F         -27.6900   21.0390  -81.4640 F       1  LIG11      -0.1810
     40 F         -28.2820   19.3670  -80.3110 F       1  LIG11      -0.1700
@<TRIPOS>BOND
     1    39    37    1
     2    40    37    1
     3    37    38    1
     4    37     5    1
     5    22    20    1
     6    21    20    1
     7     2     5   ar
     8     2     1   ar
     9    20    17    1
    10    16    14    1
    11     5     4   ar
    12    15    13    1
    13    14    13   ar
    14    14     7   ar
    15    13    12   ar
    16     1     7    1
    17     1     3   ar
    18     7     8   ar
    19     4     6    1
    20     4     3   ar
    21    12    17    1
    22    12    10   ar
    23    17    19    2
    24    17    18    2
    25     8    10   ar
    26     8     9    1
    27     3    23    1
    28    10    11    1
    29    32    30    1
    30    23    30   ar
    31    23    24   ar
    32    30    29   ar
    33    25    24    1
    34    24    26   ar
    35    29    31    1
    36    29    28   ar
    37    26    28   ar
    38    26    27    1
    39    28    33    1
    40    34    33    1
    41    33    35    1
    42    33    36    1
@<TRIPOS>MOLECULE
yes_28714
 26 26 0 0 0
SMALL
GASTEIGER

@<TRIPOS>ATOM
      1 CL        -24.0470   22.2080  -76.0970 Cl      1  LIG11      -0.0510
      2 C         -27.3170   21.5020  -78.2810 C.ar    1  LIG11       0.0650
      3 C         -26.0000   21.4620  -77.8020 C.ar    1  LIG11      -0.1700
      4 C         -28.2870   22.2770  -77.6200 C.ar    1  LIG11      -0.1450
      5 C         -26.6240   23.0000  -76.0260 C.ar    1  LIG11       0.2340
      6 C         -25.6580   22.2150  -76.6770 C.ar    1  LIG11      -0.0490
      7 C         -27.9460   23.0240  -76.4930 C.ar    1  LIG11      -0.1980
      8 H         -25.2430   20.8510  -78.2950 H       1  LIG11       0.1720
      9 H         -29.3150   22.2900  -77.9820 H       1  LIG11       0.1600
     10 H         -28.6840   23.6370  -75.9740 H       1  LIG11       0.1780
     11 O         -26.2730   23.8570  -75.0020 O.3     1  LIG11      -0.4230
     12 C         -27.1070   25.0580  -74.8730 C.3     1  LIG11      -0.0130
     13 H         -28.1750   24.7910  -74.9440 H       1  LIG11       0.1430
     14 H         -26.8230   25.7270  -75.7070 H       1  LIG11       0.1370
     15 C         -26.7280   25.6060  -73.5330 C.2     1  LIG11      -0.1070
     16 H         -26.6250   26.6970  -73.5120 H       1  LIG11       0.1680
     17 C         -26.5330   24.8400  -72.4640 C.2     1  LIG11      -0.3590
     18 H         -26.2610   25.2380  -71.4970 H       1  LIG11       0.1600
     19 H         -26.6270   23.7630  -72.4640 H       1  LIG11       0.1530
     20 C         -27.6900   20.7290  -79.5150 C.3     1  LIG11      -0.4700
     21 H         -28.5470   21.2240  -80.0270 H       1  LIG11       0.1940
     22 H         -26.8580   20.7610  -80.2540 H       1  LIG11       0.1930
     23 C         -28.0420   19.2920  -79.2080 C.2     1  LIG11       0.6580
     24 O         -29.1130   18.7900  -79.0180 O.2     1  LIG11      -0.4170
     25 O         -26.9490   18.4410  -79.1420 O.3     1  LIG11      -0.5370
     26 H         -26.2270   18.7030  -78.5380 H       1  LIG11       0.3260
@<TRIPOS>BOND
     1    22    20    1
     2    21    20    1
     3    20    23    1
     4    20     2    1
     5    23    25    1
     6    23    24    2
     7    25    26    1
     8     8     3    1
     9     2     3   ar
    10     2     4   ar
    11     9     4    1
    12     3     6   ar
    13     4     7   ar
    14     6     1    1
    15     6     5   ar
    16     7     5   ar
    17     7    10    1
    18     5    11    1
    19    14    12    1
    20    11    12    1
    21    13    12    1
    22    12    15    1
    23    15    16    1
    24    15    17    2
    25    19    17    1
    26    17    18    1
@<TRIPOS>MOLECULE
yes_2871682
 29 30 0 0 0
SMALL
GASTEIGER

@<TRIPOS>ATOM
      1 N         -25.3650   21.8700  -76.3120 N.pl3   1  LIG11      -0.3410
      2 C         -26.5770   22.0200  -76.8710 C.ar    1  LIG11       0.1970
      3 C         -26.9050   21.1760  -78.0060 C.ar    1  LIG11      -0.1910
      4 C         -27.5660   22.9820  -76.4310 C.ar    1  LIG11      -0.2030
      5 C         -28.1390   21.3310  -78.6370 C.ar    1  LIG11      -0.0710
      6 C         -28.7780   23.1080  -77.0910 C.ar    1  LIG11      -0.1010
      7 C         -29.0720   22.2900  -78.2000 C.ar    1  LIG11      -0.1310
      8 H         -27.3320   23.6110  -75.5720 H       1  LIG11       0.1730
      9 H         -28.3820   20.6860  -79.4940 H       1  LIG11       0.1860
     10 H         -29.5130   23.8430  -76.7550 H       1  LIG11       0.1610
     11 H         -30.0240   22.3950  -78.7200 H       1  LIG11       0.1640
     12 C         -24.9210   22.6000  -75.1730 C.ar    1  LIG11       0.1340
     13 C         -23.6590   22.2990  -74.6230 C.ar    1  LIG11      -0.1690
     14 C         -23.2690   22.9160  -73.4370 C.ar    1  LIG11      -0.1140
     15 H         -23.0010   21.5850  -75.1210 H       1  LIG11       0.1740
     16 H         -22.2940   22.6880  -73.0020 H       1  LIG11       0.1610
     17 C         -24.1190   23.8230  -72.7890 C.ar    1  LIG11      -0.1210
     18 H         -23.7910   24.2880  -71.8570 H       1  LIG11       0.1700
     19 C         -25.3710   24.1120  -73.3410 C.ar    1  LIG11      -0.0920
     20 C         -25.7840   23.5070  -74.5350 C.ar    1  LIG11      -0.1700
     21 H         -26.7670   23.7140  -74.9630 H       1  LIG11       0.1820
     22 C         -26.3160   25.0640  -72.6510 C.3     1  LIG11       0.4950
     23 F         -26.4320   26.2530  -73.2670 F       1  LIG11      -0.1760
     24 F         -27.5860   24.6470  -72.5230 F       1  LIG11      -0.1800
     25 F         -25.9660   25.3850  -71.3930 F       1  LIG11      -0.1830
     26 C         -26.0140   20.1060  -78.5710 C.2     1  LIG11       0.6540
     27 O         -26.4260   19.0000  -78.8500 O.2     1  LIG11      -0.4710
     28 O         -24.6990   20.3400  -78.8010 O.3     1  LIG11      -0.5060
     29 H         -24.2600   19.7850  -79.5270 H       1  LIG11       0.3710
@<TRIPOS>BOND
     1    29    28    1
     2     9     5    1
     3    27    26    2
     4    28    26    1
     5    11     7    1
     6     5     7   ar
     7     5     3   ar
     8    26     3    1
     9     7     6   ar
    10     3     2   ar
    11     6    10    1
    12     6     4   ar
    13     2     4   ar
    14     2     1    1
    15     4     8    1
    16     1    12    1
    17    12    13   ar
    18    12    20   ar
    19    15    13    1
    20    21    20    1
    21    13    14   ar
    22    20    19   ar
    23    14    16    1
    24    14    17   ar
    25    19    17   ar
    26    19    22    1
    27    23    22    1
    28    17    18    1
    29    22    24    1
    30    22    25    1
@<TRIPOS>MOLECULE
yes_2925
 30 31 0 0 0
SMALL
GASTEIGER

@<TRIPOS>ATOM
      1 C         -24.9580   21.2500  -77.0170 C.ar    1  LIG11       0.0080
      2 C         -24.7170   22.0760  -75.8960 C.ar    1  LIG11       0.1350
      3 C         -23.9330   21.0700  -77.9570 C.ar    1  LIG11      -0.1360
      4 C         -23.4830   22.7300  -75.7480 C.ar    1  LIG11      -0.2170
      5 C         -22.7040   21.7140  -77.8030 C.ar    1  LIG11      -0.1600
      6 C         -22.4820   22.5500  -76.7040 C.ar    1  LIG11      -0.1010
      7 H         -24.0970   20.4190  -78.8160 H       1  LIG11       0.1580
      8 H         -23.3050   23.3770  -74.8900 H       1  LIG11       0.1670
      9 H         -21.9180   21.5640  -78.5420 H       1  LIG11       0.1550
     10 H         -21.5250   23.0560  -76.5880 H       1  LIG11       0.1500
     11 N         -25.7690   22.1940  -74.9000 N.pl3   1  LIG11      -0.4130
     12 H         -25.5720   21.5840  -74.0870 H       1  LIG11       0.2760
     13 C         -26.2490   23.4920  -74.5640 C.ar    1  LIG11       0.1460
     14 C         -27.1740   24.1820  -75.3790 C.ar    1  LIG11      -0.0810
     15 CL        -27.8650   23.3980  -76.7460 Cl      1  LIG11      -0.0630
     16 C         -27.5580   25.4970  -75.1100 C.ar    1  LIG11      -0.1080
     17 H         -28.2730   26.0000  -75.7640 H       1  LIG11       0.1700
     18 C         -27.0280   26.1590  -74.0000 C.ar    1  LIG11      -0.1680
     19 C         -26.1050   25.5110  -73.1750 C.ar    1  LIG11      -0.1180
     20 H         -27.3320   27.1820  -73.7800 H       1  LIG11       0.1630
     21 C         -25.7180   24.2020  -73.4620 C.ar    1  LIG11      -0.0460
     22 H         -25.6830   26.0260  -72.3090 H       1  LIG11       0.1700
     23 CL        -24.5550   23.4510  -72.4440 Cl      1  LIG11      -0.0540
     24 C         -26.2890   20.5890  -77.2340 C.3     1  LIG11      -0.4460
     25 H         -27.1210   21.2500  -76.8990 H       1  LIG11       0.1960
     26 H         -26.3620   19.6830  -76.5910 H       1  LIG11       0.1950
     27 C         -26.4960   20.2580  -78.6940 C.2     1  LIG11       0.6570
     28 O         -26.6080   21.0210  -79.6160 O.2     1  LIG11      -0.4400
     29 O         -26.5670   18.9110  -78.9930 O.3     1  LIG11      -0.5370
     30 H         -25.7330   18.4020  -78.8370 H       1  LIG11       0.3390
@<TRIPOS>BOND
     1    28    27    2
     2    29    30    1
     3    29    27    1
     4     7     3    1
     5    27    24    1
     6     9     5    1
     7     3     5   ar
     8     3     1   ar
     9     5     6   ar
    10    24     1    1
    11    24    25    1
    12    24    26    1
    13     1     2   ar
    14    15    14    1
    15     6    10    1
    16     6     4   ar
    17     2     4   ar
    18     2    11    1
    19    17    16    1
    20     4     8    1
    21    14    16   ar
    22    14    13   ar
    23    16    18   ar
    24    11    13    1
    25    11    12    1
    26    13    21   ar
    27    18    20    1
    28    18    19   ar
    29    21    19   ar
    30    21    23    1
    31    19    22    1
@<TRIPOS>MOLECULE
yes_29843
 28 29 0 0 0
SMALL
GASTEIGER

@<TRIPOS>ATOM
      1 C         -26.0110   22.1980  -76.5810 C.ar    1  LIG11      -0.0130
      2 C         -27.0970   22.9710  -76.0890 C.ar    1  LIG11       0.0610
      3 C         -27.4050   21.3940  -78.4080 C.ar    1  LIG11       0.0740
      4 C         -26.1920   21.4070  -77.7580 C.ar    1  LIG11      -0.1880
      5 C         -28.3490   22.9310  -76.7810 C.ar    1  LIG11      -0.1520
      6 C         -28.5020   22.1620  -77.9060 C.ar    1  LIG11      -0.1650
      7 C         -26.9210   23.7630  -74.9140 C.ar    1  LIG11      -0.2850
      8 C         -24.7540   22.2270  -75.8930 C.ar    1  LIG11      -0.1100
      9 C         -25.6950   23.7630  -74.2920 C.ar    1  LIG11       0.2830
     10 C         -24.5910   22.9910  -74.7670 C.ar    1  LIG11      -0.2350
     11 H         -25.3530   20.8140  -78.1170 H       1  LIG11       0.1570
     12 H         -29.1790   23.5210  -76.3920 H       1  LIG11       0.1560
     13 H         -29.4580   22.1190  -78.4250 H       1  LIG11       0.1540
     14 H         -27.7410   24.3640  -74.5300 H       1  LIG11       0.1780
     15 H         -23.9310   21.6270  -76.2820 H       1  LIG11       0.1520
     16 H         -23.6480   23.0440  -74.2280 H       1  LIG11       0.1730
     17 C         -27.6030   20.5820  -79.6600 C.3     1  LIG11      -0.4730
     18 H         -28.4650   20.9820  -80.2390 H       1  LIG11       0.1920
     19 H         -26.7230   20.6960  -80.3310 H       1  LIG11       0.1900
     20 C         -27.8280   19.1190  -79.3550 C.2     1  LIG11       0.6580
     21 O         -27.0710   18.1930  -79.4250 O.2     1  LIG11      -0.4170
     22 O         -29.1140   18.8200  -78.9280 O.3     1  LIG11      -0.5420
     23 H         -29.8130   18.8370  -79.6120 H       1  LIG11       0.3250
     24 O         -25.4640   24.6090  -73.2060 O.3     1  LIG11      -0.4210
     25 C         -26.6530   24.8930  -72.4260 C.3     1  LIG11      -0.1750
     26 H         -27.1510   23.9160  -72.3950 H       1  LIG11       0.1570
     27 H         -26.3750   25.2280  -71.4230 H       1  LIG11       0.1330
     28 H         -27.2700   25.6360  -72.9400 H       1  LIG11       0.1330
@<TRIPOS>BOND
     1    19    17    1
     2    18    17    1
     3    17    20    1
     4    17     3    1
     5    23    22    1
     6    21    20    2
     7    20    22    1
     8    13     6    1
     9     3     6   ar
    10     3     4   ar
    11    11     4    1
    12     6     5   ar
    13     4     1   ar
    14     5    12    1
    15     5     2   ar
    16     1     2   ar
    17     1     8   ar
    18    15     8    1
    19     2     7   ar
    20     8    10   ar
    21     7    14    1
    22     7     9   ar
    23    10     9   ar
    24    10    16    1
    25     9    24    1
    26    24    25    1
    27    28    25    1
    28    25    26    1
    29    25    27    1
@<TRIPOS>MOLECULE
yes_3065
 35 37 0 0 0
SMALL
GASTEIGER

@<TRIPOS>ATOM
      1 BR        -27.8320    8.4570  -84.2230 Br      1  LIG11      -0.0130
      2 S         -28.1110   11.4720  -83.2810 S.2     1  LIG11       0.1720
      3 C         -28.2790   10.7920  -80.8080 C.ar    1  LIG11      -0.0710
      4 C         -28.2970   11.9090  -81.6040 C.ar    1  LIG11      -0.0830
      5 C         -28.1270    9.5640  -81.5650 C.ar    1  LIG11      -0.1470
      6 C         -28.0310    9.7670  -82.9070 C.ar    1  LIG11      -0.1210
      7 H         -28.1080    8.5950  -81.0790 H       1  LIG11       0.1800
      8 C         -28.4100   10.7810  -79.3440 C.ar    1  LIG11       0.1460
      9 C         -27.2760   10.9570  -78.5320 C.ar    1  LIG11      -0.2650
     10 H         -26.3000   11.1260  -78.9870 H       1  LIG11       0.1700
     11 C         -27.4040   10.9390  -77.1410 C.ar    1  LIG11       0.0390
     12 H         -26.5200   11.0950  -76.5090 H       1  LIG11       0.1620
     13 C         -28.6560   10.7390  -76.5530 C.ar    1  LIG11      -0.6180
     14 C         -29.7880   10.5820  -77.3580 C.ar    1  LIG11       0.0320
     15 C         -29.6690   10.5930  -78.7480 C.ar    1  LIG11      -0.2540
     16 H         -30.7770   10.4650  -76.9010 H       1  LIG11       0.1510
     17 H         -30.5530   10.4670  -79.3730 H       1  LIG11       0.1740
     18 S         -28.8160   10.7410  -74.8230 S.O2    1  LIG11       2.4820
     19 O         -28.9810   12.1160  -74.3830 O.2     1  LIG11      -0.9490
     20 O         -29.8050    9.7460  -74.4500 O.2     1  LIG11      -0.9430
     21 C         -27.2510   10.1750  -74.2630 C.3     1  LIG11      -0.9700
     22 H         -27.3070    9.5660  -73.3520 H       1  LIG11       0.2210
     23 H         -26.7570    9.5350  -75.0100 H       1  LIG11       0.2300
     24 H         -26.5400   10.9850  -74.0620 H       1  LIG11       0.2190
     25 C         -28.4250   13.3180  -81.2650 C.ar    1  LIG11      -0.0470
     26 C         -27.3850   14.2130  -81.5810 C.ar    1  LIG11      -0.0690
     27 H         -26.4860   13.8430  -82.0780 H       1  LIG11       0.1620
     28 C         -27.4970   15.5660  -81.2600 C.ar    1  LIG11      -0.2510
     29 H         -26.6970   16.2650  -81.5020 H       1  LIG11       0.1830
     30 C         -28.6630   15.9940  -80.6180 C.ar    1  LIG11       0.2320
     31 F         -28.7810   17.2850  -80.3060 F       1  LIG11      -0.1520
     32 C         -29.7140   15.1320  -80.2870 C.ar    1  LIG11      -0.2550
     33 C         -29.5850   13.7830  -80.6190 C.ar    1  LIG11      -0.0870
     34 H         -30.6080   15.4990  -79.7840 H       1  LIG11       0.1800
     35 H         -30.3880   13.0870  -80.3690 H       1  LIG11       0.1600
@<TRIPOS>BOND
     1     1     6    1
     2     2     6   ar
     3     2     4   ar
     4     6     5   ar
     5    27    26    1
     6     4    25    1
     7     4     3   ar
     8    26    25   ar
     9    26    28   ar
    10     5     7    1
    11     5     3   ar
    12    29    28    1
    13    25    33   ar
    14    28    30   ar
    15     3     8    1
    16    33    35    1
    17    33    32   ar
    18    30    31    1
    19    30    32   ar
    20    32    34    1
    21    17    15    1
    22     8    15   ar
    23     8     9   ar
    24    10     9    1
    25    15    14   ar
    26     9    11   ar
    27    14    16    1
    28    14    13   ar
    29    11    13   ar
    30    11    12    1
    31    13    18    1
    32    23    21    1
    33    18    20    2
    34    18    19    2
    35    18    21    1
    36    21    24    1
    37    21    22    1
@<TRIPOS>MOLECULE
yes_3097
 52 51 0 0 0
SMALL
GASTEIGER

@<TRIPOS>ATOM
      1 C         -27.8070   21.9640  -77.7470 C.3     1  LIG11      -0.2870
      2 H         -28.3780   21.3730  -76.9930 H       1  LIG11       0.1600
      3 H         -28.3730   22.9160  -77.8590 H       1  LIG11       0.1580
      4 C         -26.4360   22.2500  -77.2070 C.2     1  LIG11      -0.1410
      5 C         -25.3200   21.9000  -77.8530 C.2     1  LIG11      -0.1760
      6 H         -25.3420   21.3870  -78.8140 H       1  LIG11       0.1420
      7 H         -26.4030   22.7730  -76.2500 H       1  LIG11       0.1450
      8 C         -23.9430   22.1830  -77.3290 C.3     1  LIG11      -0.2750
      9 H         -23.3740   22.7640  -78.0890 H       1  LIG11       0.1520
     10 H         -23.3630   21.2450  -77.1910 H       1  LIG11       0.1510
     11 C         -23.9820   22.9430  -76.0320 C.2     1  LIG11      -0.1410
     12 C         -23.6420   22.3900  -74.8640 C.2     1  LIG11      -0.1780
     13 H         -23.3140   21.3530  -74.7880 H       1  LIG11       0.1430
     14 H         -24.3200   23.9770  -76.1040 H       1  LIG11       0.1470
     15 C         -23.6840   23.1300  -73.5590 C.3     1  LIG11      -0.2730
     16 H         -23.8710   22.4040  -72.7370 H       1  LIG11       0.1510
     17 H         -22.6980   23.5870  -73.3240 H       1  LIG11       0.1500
     18 C         -24.7450   24.1930  -73.5520 C.2     1  LIG11      -0.1470
     19 H         -24.6340   24.9720  -74.3060 H       1  LIG11       0.1460
     20 C         -25.7550   24.1990  -72.6770 C.2     1  LIG11      -0.1800
     21 H         -25.8620   23.4270  -71.9150 H       1  LIG11       0.1410
     22 C         -26.8210   25.2550  -72.6510 C.3     1  LIG11      -0.2250
     23 H         -27.7630   24.8660  -72.2120 H       1  LIG11       0.1330
     24 H         -26.5000   26.0810  -71.9810 H       1  LIG11       0.1340
     25 C         -27.0930   25.7960  -74.0540 C.3     1  LIG11      -0.4530
     26 H         -28.0060   26.4040  -74.0740 H       1  LIG11       0.1510
     27 H         -27.2250   24.9870  -74.7810 H       1  LIG11       0.1460
     28 H         -26.2680   26.4260  -74.4040 H       1  LIG11       0.1440
     29 C         -27.8010   21.2250  -79.0530 C.2     1  LIG11      -0.1350
     30 C         -28.3870   20.0340  -79.2120 C.2     1  LIG11      -0.1830
     31 H         -28.9010   19.5290  -78.3960 H       1  LIG11       0.1430
     32 H         -27.2810   21.7210  -79.8740 H       1  LIG11       0.1450
     33 C         -28.3890   19.2860  -80.5130 C.3     1  LIG11      -0.2760
     34 H         -29.4020   19.3520  -80.9720 H       1  LIG11       0.1530
     35 H         -27.7080   19.7630  -81.2520 H       1  LIG11       0.1530
     36 C         -28.0050   17.8450  -80.3320 C.2     1  LIG11      -0.1280
     37 C         -27.6790   17.0520  -81.3560 C.2     1  LIG11      -0.1930
     38 H         -27.6740   17.4100  -82.3850 H       1  LIG11       0.1450
     39 H         -28.0020   17.4880  -79.3020 H       1  LIG11       0.1460
     40 C         -27.2850   15.6130  -81.1910 C.3     1  LIG11      -0.2660
     41 H         -27.3180   15.3460  -80.1140 H       1  LIG11       0.1410
     42 H         -26.2350   15.4460  -81.5060 H       1  LIG11       0.1380
     43 C         -28.2270   14.7060  -81.9960 C.3     1  LIG11      -0.2080
     44 H         -29.0760   15.2940  -82.4000 H       1  LIG11       0.1490
     45 H         -27.7000   14.3080  -82.8890 H       1  LIG11       0.1520
     46 C         -28.7550   13.5470  -81.1410 C.3     1  LIG11      -0.4530
     47 H         -27.9340   12.8280  -80.9310 H       1  LIG11       0.1800
     48 H         -29.5220   12.9790  -81.7070 H       1  LIG11       0.1810
     49 C         -29.3390   14.0520  -79.8480 C.2     1  LIG11       0.6510
     50 O         -30.2800   14.7770  -79.6740 O.2     1  LIG11      -0.4370
     51 O         -28.6910   13.6120  -78.7030 O.3     1  LIG11      -0.5400
     52 H         -28.3020   14.3080  -78.1360 H       1  LIG11       0.3250
@<TRIPOS>BOND
     1    45    43    1
     2    44    43    1
     3    38    37    1
     4    43    40    1
     5    43    46    1
     6    48    46    1
     7    42    40    1
     8    37    40    1
     9    37    36    2
    10    35    33    1
    11    40    41    1
    12    46    47    1
    13    46    49    1
    14    34    33    1
    15    33    36    1
    16    33    30    1
    17    36    39    1
    18    32    29    1
    19    49    50    2
    20    49    51    1
    21    30    29    2
    22    30    31    1
    23    29     1    1
    24     6     5    1
    25    51    52    1
    26     9     8    1
    27     3     1    1
    28     5     8    1
    29     5     4    2
    30     1     4    1
    31     1     2    1
    32     8    10    1
    33     8    11    1
    34     4     7    1
    35    14    11    1
    36    11    12    2
    37    12    13    1
    38    12    15    1
    39    27    25    1
    40    28    25    1
    41    19    18    1
    42    26    25    1
    43    25    22    1
    44    15    18    1
    45    15    17    1
    46    15    16    1
    47    18    20    2
    48    20    22    1
    49    20    21    1
    50    22    23    1
    51    22    24    1
@<TRIPOS>MOLECULE
yes_3192
 42 44 0 0 0
SMALL
GASTEIGER

@<TRIPOS>ATOM
      1 O         -28.1480    9.1640  -78.3250 O.3     1  LIG11      -0.4730
      2 N         -28.6540   12.6470  -79.6810 N.4     1  LIG11      -0.2940
      3 C         -28.5550   10.5390  -78.1650 C.3     1  LIG11       0.4170
      4 C         -28.4700   11.2460  -79.4840 C.3     1  LIG11      -0.1250
      5 C         -28.2770   10.6100  -80.6950 C.3     1  LIG11       0.0040
      6 C         -28.1190    9.1420  -80.8080 C.3     1  LIG11      -0.3250
      7 C         -28.2450   11.6270  -81.7240 C.3     1  LIG11      -0.0760
      8 C         -28.5850    8.4620  -79.5130 C.3     1  LIG11       0.0110
      9 C         -28.4230   12.8860  -81.0640 C.3     1  LIG11       0.0540
     10 C         -28.4380   14.1060  -81.7790 C.3     1  LIG11      -0.0170
     11 C         -28.0850   11.5890  -83.1190 C.3     1  LIG11      -0.1160
     12 C         -28.2640   14.0270  -83.1550 C.3     1  LIG11      -0.1510
     13 C         -28.0930   12.7860  -83.8170 C.3     1  LIG11      -0.1680
     14 H         -27.0510    8.9030  -81.0090 H       1  LIG11       0.1670
     15 H         -28.6890    8.7410  -81.6730 H       1  LIG11       0.1650
     16 H         -28.1040    7.4780  -79.3570 H       1  LIG11       0.1440
     17 H         -29.6850    8.3490  -79.4760 H       1  LIG11       0.1360
     18 H         -28.3770   13.3130  -78.9760 H       1  LIG11       0.2650
     19 H         -27.9610   10.6360  -83.6280 H       1  LIG11       0.1510
     20 H         -28.2580   14.9380  -83.7530 H       1  LIG11       0.1500
     21 H         -27.9680   12.7880  -84.8980 H       1  LIG11       0.1490
     22 C         -27.5480   11.0690  -77.1160 C.3     1  LIG11      -0.2950
     23 H         -27.5870   10.4020  -76.2270 H       1  LIG11       0.1620
     24 H         -27.8550   12.0720  -76.7670 H       1  LIG11       0.1350
     25 C         -26.1210   11.1020  -77.6510 C.3     1  LIG11      -0.4420
     26 H         -25.3920   11.1850  -76.8390 H       1  LIG11       0.1450
     27 H         -25.9000   10.1780  -78.2060 H       1  LIG11       0.1700
     28 H         -25.9530   11.9340  -78.3420 H       1  LIG11       0.1480
     29 C         -29.9880   10.5860  -77.5750 C.3     1  LIG11      -0.5690
     30 H         -30.7010   10.4690  -78.4280 H       1  LIG11       0.2170
     31 H         -30.1590    9.7110  -76.9170 H       1  LIG11       0.1890
     32 C         -30.3670   11.8490  -76.8460 C.2     1  LIG11       0.6830
     33 O         -30.4680   12.9470  -77.3330 O.2     1  LIG11      -0.4680
     34 O         -30.6990   11.7390  -75.5180 O.3     1  LIG11      -0.5290
     35 H         -29.9920   11.9920  -74.8740 H       1  LIG11       0.3480
     36 C         -28.6240   15.4190  -81.0750 C.3     1  LIG11      -0.2420
     37 H         -29.6460   15.8120  -81.2600 H       1  LIG11       0.1460
     38 H         -28.5680   15.2800  -79.9760 H       1  LIG11       0.1380
     39 C         -27.5880   16.4470  -81.5320 C.3     1  LIG11      -0.4510
     40 H         -28.0290   17.1660  -82.2370 H       1  LIG11       0.1560
     41 H         -26.7440   15.9760  -82.0460 H       1  LIG11       0.1460
     42 H         -27.1930   17.0180  -80.6850 H       1  LIG11       0.1470
@<TRIPOS>BOND
     1    21    13    1
     2    13    12    1
     3    13    11    1
     4    20    12    1
     5    19    11    1
     6    12    10    1
     7    11     7    1
     8    40    39    1
     9    41    39    1
    10    10    36    1
    11    10     9    1
    12     7     9    1
    13     7     5    1
    14    15     6    1
    15    39    36    1
    16    39    42    1
    17    37    36    1
    18    36    38    1
    19     9     2    1
    20    14     6    1
    21     6     5    1
    22     6     8    1
    23     5     4    1
    24     2     4    1
    25     2    18    1
    26     8    17    1
    27     8    16    1
    28     8     1    1
    29     4     3    1
    30    30    29    1
    31    28    25    1
    32     1     3    1
    33    27    25    1
    34     3    29    1
    35     3    22    1
    36    25    22    1
    37    25    26    1
    38    29    31    1
    39    29    32    1
    40    33    32    2
    41    22    24    1
    42    22    23    1
    43    32    34    1
    44    34    35    1
@<TRIPOS>MOLECULE
yes_3225
 32 33 0 0 0
SMALL
GASTEIGER

@<TRIPOS>ATOM
      1 C         -27.4280   21.6130  -78.3930 C.ar    1  LIG11       0.1500
      2 C         -27.9150   22.2700  -77.2560 C.ar    1  LIG11      -0.3550
      3 C         -26.1440   21.8940  -78.8780 C.ar    1  LIG11      -0.2930
      4 C         -27.1040   23.2290  -76.6440 C.ar    1  LIG11       0.3450
      5 C         -25.3410   22.8410  -78.2270 C.ar    1  LIG11      -0.0240
      6 C         -25.8090   23.5240  -77.1080 C.ar    1  LIG11      -0.2980
      7 H         -28.9120   22.0460  -76.8710 H       1  LIG11       0.2030
      8 H         -25.7590   21.3840  -79.7570 H       1  LIG11       0.1590
      9 H         -24.3400   23.0500  -78.6050 H       1  LIG11       0.1430
     10 H         -25.2090   24.2700  -76.5930 H       1  LIG11       0.1830
     11 O         -27.4340   23.9230  -75.4900 O.3     1  LIG11      -0.3820
     12 C         -26.5510   23.9910  -74.4050 C.ar    1  LIG11       0.3030
     13 C         -26.9720   24.8940  -73.4170 C.ar    1  LIG11      -0.2740
     14 H         -27.8590   25.5020  -73.5770 H       1  LIG11       0.1770
     15 C         -26.2240   24.9760  -72.2420 C.ar    1  LIG11      -0.0570
     16 H         -26.5300   25.6660  -71.4560 H       1  LIG11       0.1430
     17 C         -25.0830   24.1830  -72.0700 C.ar    1  LIG11      -0.2300
     18 C         -24.6890   23.2910  -73.0730 C.ar    1  LIG11      -0.0410
     19 H         -24.4980   24.2630  -71.1570 H       1  LIG11       0.1550
     20 C         -25.4260   23.1770  -74.2550 C.ar    1  LIG11      -0.3020
     21 H         -23.7980   22.6760  -72.9370 H       1  LIG11       0.1470
     22 H         -25.1220   22.4730  -75.0290 H       1  LIG11       0.1890
     23 C         -28.2710   20.5720  -79.1020 C.3     1  LIG11      -0.2460
     24 H         -29.2730   20.5200  -78.5970 H       1  LIG11       0.1660
     25 C         -28.4760   20.9600  -80.5690 C.3     1  LIG11      -0.4520
     26 H         -28.6460   20.0670  -81.1870 H       1  LIG11       0.1700
     27 H         -27.6130   21.4920  -80.9850 H       1  LIG11       0.1530
     28 H         -29.3580   21.6040  -80.6980 H       1  LIG11       0.1730
     29 C         -27.6440   19.1810  -79.0440 C.2     1  LIG11       0.6340
     30 O         -26.5490   18.8490  -78.6800 O.2     1  LIG11      -0.4360
     31 O         -28.4700   18.1610  -79.4830 O.3     1  LIG11      -0.5310
     32 H         -28.1600   17.6700  -80.2720 H       1  LIG11       0.3260
@<TRIPOS>BOND
     1    26    25    1
     2    27    25    1
     3    28    25    1
     4    25    23    1
     5    32    31    1
     6     8     3    1
     7    31    29    1
     8    23    29    1
     9    23    24    1
    10    23     1    1
    11    29    30    2
    12     3     1   ar
    13     3     5   ar
    14     9     5    1
    15     1     2   ar
    16     5     6   ar
    17     2     7    1
    18     2     4   ar
    19     6     4   ar
    20     6    10    1
    21     4    11    1
    22    11    12    1
    23    22    20    1
    24    12    20   ar
    25    12    13   ar
    26    20    18   ar
    27    14    13    1
    28    13    15   ar
    29    18    21    1
    30    18    17   ar
    31    15    17   ar
    32    15    16    1
    33    17    19    1
@<TRIPOS>MOLECULE
yes_3254
 30 31 0 0 0
SMALL
GASTEIGER

@<TRIPOS>ATOM
      1 N         -25.2180   22.3190  -76.5980 N.pl3   1  LIG11      -0.4300
      2 H         -24.4180   21.9930  -77.1850 H       1  LIG11       0.3260
      3 C         -24.8770   22.8290  -75.3070 C.ar    1  LIG11       0.2070
      4 C         -23.6630   22.3960  -74.7300 C.ar    1  LIG11      -0.2140
      5 C         -23.3160   22.8370  -73.4560 C.ar    1  LIG11      -0.0900
      6 H         -23.0030   21.7210  -75.2770 H       1  LIG11       0.1750
      7 H         -22.3800   22.5020  -73.0040 H       1  LIG11       0.1580
      8 C         -24.1530   23.7090  -72.7460 C.ar    1  LIG11      -0.1430
      9 H         -23.8520   24.0450  -71.7520 H       1  LIG11       0.1700
     10 C         -25.3550   24.1270  -73.3220 C.ar    1  LIG11      -0.0710
     11 C         -25.7360   23.6810  -74.5940 C.ar    1  LIG11      -0.2100
     12 H         -26.6970   23.9750  -75.0260 H       1  LIG11       0.1860
     13 C         -26.2870   25.0520  -72.5780 C.3     1  LIG11       0.4940
     14 F         -26.4200   26.2630  -73.1440 F       1  LIG11      -0.1780
     15 F         -27.5520   24.6280  -72.4330 F       1  LIG11      -0.1800
     16 F         -25.9050   25.3250  -71.3180 F       1  LIG11      -0.1850
     17 C         -26.5050   22.2090  -77.1190 C.ar    1  LIG11       0.4080
     18 C         -26.8030   21.1600  -78.0370 C.ar    1  LIG11      -0.4600
     19 C         -28.1160   21.0640  -78.5520 C.ar    1  LIG11       0.0550
     20 H         -28.3410   20.2500  -79.2520 H       1  LIG11       0.1210
     21 C         -29.1070   21.9570  -78.1970 C.ar    1  LIG11      -0.3090
     22 C         -28.7970   23.0120  -77.3080 C.ar    1  LIG11       0.0560
     23 H         -30.1130   21.8650  -78.5960 H       1  LIG11       0.1690
     24 C         -27.5280   23.1450  -76.7830 C.ar    1  LIG11      -0.3790
     25 H         -29.5760   23.7320  -77.0430 H       1  LIG11       0.1420
     26 H         -27.3000   23.9870  -76.1310 H       1  LIG11       0.1860
     27 C         -25.7730   20.2020  -78.4600 C.2     1  LIG11       0.6910
     28 O         -24.6270   20.4610  -78.7770 O.2     1  LIG11      -0.5140
     29 O         -26.1030   18.8660  -78.5240 O.3     1  LIG11      -0.5080
     30 H         -25.9530   18.3550  -77.6880 H       1  LIG11       0.3280
@<TRIPOS>BOND
     1    20    19    1
     2    28    27    2
     3    23    21    1
     4    19    21   ar
     5    19    18   ar
     6    29    27    1
     7    29    30    1
     8    27    18    1
     9    21    22   ar
    10    18    17   ar
    11    22    25    1
    12    22    24   ar
    13     2     1    1
    14    17    24   ar
    15    17     1    1
    16    24    26    1
    17     1     3    1
    18     3     4   ar
    19     3    11   ar
    20     6     4    1
    21    12    11    1
    22     4     5   ar
    23    11    10   ar
    24     5     7    1
    25     5     8   ar
    26    10     8   ar
    27    10    13    1
    28    14    13    1
    29     8     9    1
    30    13    15    1
    31    13    16    1
@<TRIPOS>MOLECULE
yes_3277
 31 32 0 0 0
SMALL
GASTEIGER

@<TRIPOS>ATOM
      1 F         -24.5990   22.7500  -76.9200 F       1  LIG11      -0.1430
      2 C         -27.3780   21.3860  -78.7770 C.ar    1  LIG11       0.1020
      3 C         -26.9060   23.0180  -76.5140 C.ar    1  LIG11      -0.1160
      4 C         -26.0610   21.6750  -78.3970 C.ar    1  LIG11      -0.2700
      5 C         -28.4500   21.9200  -78.0430 C.ar    1  LIG11      -0.2430
      6 C         -25.8560   22.4830  -77.2780 C.ar    1  LIG11       0.2180
      7 C         -28.2130   22.7260  -76.9280 C.ar    1  LIG11      -0.0780
      8 H         -25.2160   21.3000  -78.9830 H       1  LIG11       0.2010
      9 H         -29.4760   21.7070  -78.3370 H       1  LIG11       0.1590
     10 H         -29.0540   23.1340  -76.3640 H       1  LIG11       0.1570
     11 C         -26.6600   23.8510  -75.3190 C.ar    1  LIG11       0.0410
     12 C         -25.8260   23.3770  -74.2940 C.ar    1  LIG11      -0.1660
     13 H         -25.3500   22.4030  -74.3880 H       1  LIG11       0.1550
     14 C         -25.6060   24.1610  -73.1590 C.ar    1  LIG11      -0.1300
     15 H         -24.9580   23.7940  -72.3650 H       1  LIG11       0.1460
     16 C         -26.2140   25.4150  -73.0410 C.ar    1  LIG11      -0.1530
     17 H         -26.0390   26.0230  -72.1560 H       1  LIG11       0.1470
     18 C         -27.0430   25.8880  -74.0630 C.ar    1  LIG11      -0.1290
     19 C         -27.2680   25.1100  -75.2020 C.ar    1  LIG11      -0.1680
     20 H         -27.5130   26.8660  -73.9730 H       1  LIG11       0.1460
     21 H         -27.9050   25.4810  -76.0030 H       1  LIG11       0.1560
     22 C         -27.6710   20.4620  -79.9390 C.3     1  LIG11      -0.2370
     23 H         -26.8070   20.5050  -80.6570 H       1  LIG11       0.1660
     24 C         -28.9430   20.9180  -80.6620 C.3     1  LIG11      -0.4540
     25 H         -29.8330   20.7240  -80.0470 H       1  LIG11       0.1700
     26 H         -28.9310   21.9870  -80.8990 H       1  LIG11       0.1540
     27 H         -29.0870   20.3730  -81.6060 H       1  LIG11       0.1730
     28 C         -27.8500   19.0080  -79.5110 C.2     1  LIG11       0.6290
     29 O         -27.0440   18.1190  -79.4640 O.2     1  LIG11      -0.4270
     30 O         -29.1350   18.6820  -79.1080 O.3     1  LIG11      -0.5300
     31 H         -29.6390   18.1020  -79.7140 H       1  LIG11       0.3260
@<TRIPOS>BOND
     1    27    24    1
     2    26    24    1
     3    24    25    1
     4    24    22    1
     5    23    22    1
     6    22    28    1
     7    22     2    1
     8    31    30    1
     9    28    29    2
    10    28    30    1
    11     8     4    1
    12     2     4   ar
    13     2     5   ar
    14     4     6   ar
    15     9     5    1
    16     5     7   ar
    17     6     1    1
    18     6     3   ar
    19     7     3   ar
    20     7    10    1
    21     3    11    1
    22    21    19    1
    23    11    19   ar
    24    11    12   ar
    25    19    18   ar
    26    13    12    1
    27    12    14   ar
    28    18    20    1
    29    18    16   ar
    30    14    16   ar
    31    14    15    1
    32    16    17    1
@<TRIPOS>MOLECULE
yes_32983
 19 19 0 0 0
SMALL
GASTEIGER

@<TRIPOS>ATOM
      1 C         -27.2440   23.9770  -76.4560 C.ar    1  LIG11       0.2060
      2 C         -28.4010   23.2170  -76.7110 C.ar    1  LIG11      -0.2510
      3 C         -25.9980   23.5840  -76.9700 C.ar    1  LIG11      -0.2600
      4 C         -28.2950   22.0530  -77.4740 C.ar    1  LIG11      -0.0710
      5 C         -25.9130   22.4110  -77.7250 C.ar    1  LIG11      -0.0710
      6 C         -27.0550   21.6450  -77.9780 C.ar    1  LIG11      -0.1940
      7 H         -29.3670   23.5290  -76.3180 H       1  LIG11       0.1680
      8 H         -25.1090   24.1940  -76.8100 H       1  LIG11       0.1760
      9 H         -29.1870   21.4580  -77.6750 H       1  LIG11       0.1490
     10 H         -24.9480   22.1000  -78.1270 H       1  LIG11       0.1500
     11 H         -26.9810   20.7350  -78.5720 H       1  LIG11       0.1580
     12 N         -27.3820   25.1870  -75.6930 N.am    1  LIG11      -0.5030
     13 H         -27.8750   25.9620  -76.1560 H       1  LIG11       0.2970
     14 C         -26.9760   25.4150  -74.3710 C.2     1  LIG11       0.5710
     15 O         -27.1370   26.5130  -73.8850 O.2     1  LIG11      -0.4640
     16 C         -26.3800   24.2430  -73.5850 C.3     1  LIG11      -0.1400
     17 CL        -24.6600   24.1450  -73.9710 Cl      1  LIG11      -0.0720
     18 H         -26.8620   23.2530  -73.7880 H       1  LIG11       0.2050
     19 CL        -26.5420   24.6110  -71.8730 Cl      1  LIG11      -0.0530
@<TRIPOS>BOND
     1    11     6    1
     2    10     5    1
     3     6     5   ar
     4     6     4   ar
     5     5     3   ar
     6     9     4    1
     7     4     2   ar
     8     3     8    1
     9     3     1   ar
    10     2     1   ar
    11     2     7    1
    12     1    12    1
    13    13    12    1
    14    12    14   am
    15    14    15    2
    16    14    16    1
    17    17    16    1
    18    18    16    1
    19    16    19    1
@<TRIPOS>MOLECULE
yes_33051
 31 32 0 0 0
SMALL
GASTEIGER

@<TRIPOS>ATOM
      1 CL        -24.3050   22.8920  -77.1020 Cl      1  LIG11      -0.0750
      2 C         -26.8700   23.5030  -76.3860 C.ar    1  LIG11       0.1860
      3 C         -27.9000   21.5790  -78.2030 C.ar    1  LIG11      -0.0450
      4 C         -26.0160   22.7240  -77.2080 C.ar    1  LIG11      -0.0600
      5 C         -28.2570   23.2720  -76.5010 C.ar    1  LIG11      -0.2700
      6 C         -26.5160   21.7820  -78.1020 C.ar    1  LIG11      -0.1220
      7 C         -28.7620   22.3270  -77.3910 C.ar    1  LIG11      -0.1060
      8 H         -28.9490   23.8470  -75.8830 H       1  LIG11       0.1640
      9 H         -25.8270   21.2010  -78.7290 H       1  LIG11       0.1900
     10 H         -29.8390   22.1740  -77.4480 H       1  LIG11       0.1450
     11 N         -26.3010   24.3730  -75.4100 N.pl3   1  LIG11      -0.3050
     12 C         -25.8410   23.7660  -74.1040 C.3     1  LIG11      -0.1290
     13 H         -24.7330   23.8750  -74.0780 H       1  LIG11       0.1590
     14 H         -26.0730   22.6860  -74.0050 H       1  LIG11       0.1370
     15 C         -26.5020   24.5880  -73.0230 C.2     1  LIG11      -0.1840
     16 H         -26.3710   24.3340  -71.9860 H       1  LIG11       0.1570
     17 C         -27.2070   25.5960  -73.5490 C.2     1  LIG11      -0.1740
     18 C         -27.1170   25.5990  -75.0570 C.3     1  LIG11      -0.1180
     19 H         -27.7830   26.3480  -73.0360 H       1  LIG11       0.1580
     20 H         -26.5540   26.4880  -75.4240 H       1  LIG11       0.1660
     21 H         -28.1190   25.6090  -75.5300 H       1  LIG11       0.1480
     22 C         -28.4640   20.5390  -79.1420 C.3     1  LIG11      -0.2000
     23 H         -29.4960   20.2600  -78.8040 H       1  LIG11       0.1500
     24 C         -27.5990   19.2770  -79.1480 C.3     1  LIG11      -0.4530
     25 H         -27.9810   18.5360  -78.4330 H       1  LIG11       0.1660
     26 H         -27.5660   18.8050  -80.1360 H       1  LIG11       0.1570
     27 H         -26.5620   19.5000  -78.8530 H       1  LIG11       0.1750
     28 C         -28.5330   21.0920  -80.5650 C.2     1  LIG11       0.6270
     29 O         -27.6550   21.1600  -81.3830 O.2     1  LIG11      -0.4390
     30 O         -29.7740   21.5550  -80.9610 O.3     1  LIG11      -0.5290
     31 H         -29.9220   22.5180  -80.8580 H       1  LIG11       0.3250
@<TRIPOS>BOND
     1    29    28    2
     2    30    31    1
     3    30    28    1
     4    28    22    1
     5    26    24    1
     6    24    22    1
     7    24    27    1
     8    24    25    1
     9    22    23    1
    10    22     3    1
    11     9     6    1
    12     3     6   ar
    13     3     7   ar
    14     6     4   ar
    15    10     7    1
    16     7     5   ar
    17     4     1    1
    18     4     2   ar
    19     5     2   ar
    20     5     8    1
    21     2    11    1
    22    21    18    1
    23    20    18    1
    24    11    18    1
    25    11    12    1
    26    18    17    1
    27    12    13    1
    28    12    14    1
    29    12    15    1
    30    17    19    1
    31    17    15    2
    32    15    16    1
@<TRIPOS>MOLECULE
yes_331
 16 16 0 0 0
SMALL
GASTEIGER

@<TRIPOS>ATOM
      1 C         -25.7070   23.9490  -73.8530 C.ar    1  LIG11      -0.3850
      2 C         -26.2350   23.2860  -74.9730 C.ar    1  LIG11       0.4080
      3 C         -24.3740   23.6570  -73.4980 C.ar    1  LIG11       0.0710
      4 C         -25.4920   22.3620  -75.7240 C.ar    1  LIG11      -0.4010
      5 C         -23.6190   22.7410  -74.2280 C.ar    1  LIG11      -0.2980
      6 C         -24.1780   22.0960  -75.3400 C.ar    1  LIG11       0.0510
      7 H         -23.9410   24.1720  -72.6310 H       1  LIG11       0.1680
      8 H         -25.9280   21.8670  -76.5870 H       1  LIG11       0.1780
      9 H         -22.5920   22.5290  -73.9350 H       1  LIG11       0.1730
     10 H         -23.5820   21.3810  -75.9110 H       1  LIG11       0.1440
     11 C         -26.4220   24.9440  -73.0130 C.2     1  LIG11       0.6900
     12 O         -26.5060   24.8910  -71.8070 O.2     1  LIG11      -0.4730
     13 O         -27.0580   25.9990  -73.6140 O.3     1  LIG11      -0.5190
     14 H         -26.6010   26.4110  -74.3930 H       1  LIG11       0.3480
     15 O         -27.5330   23.5890  -75.3070 O.3     1  LIG11      -0.5000
     16 H         -27.7550   24.5450  -75.1840 H       1  LIG11       0.3430
@<TRIPOS>BOND
     1     8     4    1
     2    10     6    1
     3     4     6   ar
     4     4     2   ar
     5     6     5   ar
     6    15    16    1
     7    15     2    1
     8     2     1   ar
     9    14    13    1
    10     5     9    1
    11     5     3   ar
    12     1     3   ar
    13     1    11    1
    14    13    11    1
    15     3     7    1
    16    11    12    2
@<TRIPOS>MOLECULE
yes_34911
 32 33 0 0 0
SMALL
GASTEIGER

@<TRIPOS>ATOM
      1 C         -27.4020   22.1800  -77.5770 C.ar    1  LIG11       0.1180
      2 C         -26.2920   22.8170  -76.9560 C.ar    1  LIG11       0.0750
      3 C         -27.1330   21.1520  -78.5000 C.ar    1  LIG11      -0.1980
      4 C         -24.9770   22.4190  -77.2280 C.ar    1  LIG11      -0.0900
      5 C         -25.8120   20.7540  -78.7680 C.ar    1  LIG11      -0.0680
      6 C         -24.7430   21.3850  -78.1370 C.ar    1  LIG11      -0.1820
      7 H         -24.1360   22.9190  -76.7390 H       1  LIG11       0.1800
      8 H         -25.6050   19.9460  -79.4740 H       1  LIG11       0.1630
      9 H         -23.7210   21.0730  -78.3510 H       1  LIG11       0.1640
     10 N         -26.5420   23.8500  -75.9830 N.pl3   1  LIG11      -0.3630
     11 H         -26.9540   24.7340  -76.3650 H       1  LIG11       0.3210
     12 C         -26.0140   23.8850  -74.7100 C.ar    1  LIG11       0.4750
     13 N         -25.0530   22.9320  -74.3670 N.ar    1  LIG11      -0.4460
     14 C         -24.5470   22.9410  -73.1280 C.ar    1  LIG11       0.1930
     15 H         -23.7880   22.1730  -72.9130 H       1  LIG11       0.1640
     16 C         -24.9430   23.8680  -72.1310 C.ar    1  LIG11      -0.4120
     17 C         -25.8970   24.8100  -72.4610 C.ar    1  LIG11       0.1230
     18 H         -24.4960   23.8290  -71.1420 H       1  LIG11       0.1860
     19 C         -26.4620   24.8540  -73.7530 C.ar    1  LIG11      -0.5360
     20 H         -26.2270   25.5450  -71.7190 H       1  LIG11       0.1240
     21 C         -27.4470   25.8740  -74.1240 C.2     1  LIG11       0.7050
     22 O         -27.5720   26.3900  -75.2190 O.2     1  LIG11      -0.5170
     23 O         -28.3290   26.3200  -73.1650 O.3     1  LIG11      -0.5030
     24 H         -28.8570   27.1180  -73.4130 H       1  LIG11       0.3270
     25 C         -28.7920   22.6140  -77.2570 C.3     1  LIG11      -0.5130
     26 H         -29.1970   23.3410  -77.9780 H       1  LIG11       0.1870
     27 H         -29.5300   21.7930  -77.2460 H       1  LIG11       0.1760
     28 H         -28.8440   23.0810  -76.2600 H       1  LIG11       0.1900
     29 C         -28.2470   20.4500  -79.2290 C.3     1  LIG11       0.5260
     30 F         -27.8440   19.6340  -80.2190 F       1  LIG11      -0.1910
     31 F         -29.1390   21.2490  -79.8440 F       1  LIG11      -0.1910
     32 F         -29.0310   19.6710  -78.4640 F       1  LIG11      -0.1890
@<TRIPOS>BOND
     1    30    29    1
     2    31    29    1
     3     8     5    1
     4    29     3    1
     5    29    32    1
     6     5     3   ar
     7     5     6   ar
     8     3     1   ar
     9     9     6    1
    10     6     4   ar
    11    26    25    1
    12     1    25    1
    13     1     2   ar
    14    25    27    1
    15    25    28    1
    16     4     2   ar
    17     4     7    1
    18     2    10    1
    19    11    10    1
    20    10    12    1
    21    22    21    2
    22    12    13   ar
    23    12    19   ar
    24    13    14   ar
    25    21    19    1
    26    21    23    1
    27    19    17   ar
    28    24    23    1
    29    14    15    1
    30    14    16   ar
    31    17    16   ar
    32    17    20    1
    33    16    18    1
@<TRIPOS>MOLECULE
yes_3512137
 36 38 0 0 0
SMALL
GASTEIGER

@<TRIPOS>ATOM
      1 N         -25.7450   21.6540  -78.1020 N.ar    1  LIG11       0.0520
      2 N         -26.2720   21.1100  -79.2200 N.ar    1  LIG11      -0.1630
      3 C         -26.7500   22.1610  -77.2450 C.ar    1  LIG11      -0.0160
      4 C         -27.9670   21.9030  -77.8840 C.ar    1  LIG11      -0.2080
      5 C         -27.6320   21.2520  -79.1090 C.ar    1  LIG11      -0.1320
      6 H         -28.9510   22.1520  -77.5350 H       1  LIG11       0.1900
      7 C         -24.3180   21.6630  -77.8850 C.ar    1  LIG11      -0.0230
      8 C         -23.7420   22.7000  -77.1190 C.ar    1  LIG11      -0.0550
      9 H         -24.3740   23.4800  -76.6840 H       1  LIG11       0.1670
     10 C         -22.3710   22.7210  -76.9230 C.ar    1  LIG11      -0.2860
     11 H         -21.8910   23.5080  -76.3420 H       1  LIG11       0.1890
     12 C         -21.5790   21.6910  -77.4840 C.ar    1  LIG11       0.3450
     13 C         -22.1490   20.6470  -78.2260 C.ar    1  LIG11      -0.3540
     14 C         -23.5300   20.6350  -78.4230 C.ar    1  LIG11      -0.0220
     15 H         -21.5400   19.8490  -78.6420 H       1  LIG11       0.1790
     16 H         -23.9950   19.8230  -78.9890 H       1  LIG11       0.1710
     17 O         -20.2440   21.8490  -77.2190 O.3     1  LIG11      -0.3570
     18 C         -19.2960   21.1530  -78.0680 C.3     1  LIG11      -0.1930
     19 H         -18.4040   21.7870  -77.9690 H       1  LIG11       0.1660
     20 H         -19.1050   20.1490  -77.6790 H       1  LIG11       0.1440
     21 H         -19.6530   21.1340  -79.1010 H       1  LIG11       0.1430
     22 C         -26.4940   22.8280  -75.9720 C.ar    1  LIG11      -0.0100
     23 C         -27.1090   24.0630  -75.7030 C.ar    1  LIG11      -0.1160
     24 H         -27.7730   24.5130  -76.4430 H       1  LIG11       0.1640
     25 C         -26.8740   24.7140  -74.4900 C.ar    1  LIG11      -0.1820
     26 H         -27.3480   25.6720  -74.2740 H       1  LIG11       0.1750
     27 C         -26.0200   24.1160  -73.5610 C.ar    1  LIG11       0.0670
     28 CL        -25.7360   24.9070  -72.0550 Cl      1  LIG11      -0.0860
     29 C         -25.3870   22.8950  -73.8120 C.ar    1  LIG11      -0.1810
     30 C         -25.6270   22.2510  -75.0260 C.ar    1  LIG11      -0.1150
     31 H         -24.7180   22.4540  -73.0720 H       1  LIG11       0.1750
     32 H         -25.1400   21.2990  -75.2420 H       1  LIG11       0.1640
     33 C         -28.5600   20.7680  -80.1660 C.3     1  LIG11       0.5430
     34 F         -29.1340   19.5810  -79.9150 F       1  LIG11      -0.1730
     35 F         -29.6030   21.5850  -80.3980 F       1  LIG11      -0.1860
     36 F         -28.0010   20.6140  -81.3770 F       1  LIG11      -0.1750
@<TRIPOS>BOND
     1    36    33    1
     2    35    33    1
     3    33    34    1
     4    33     5    1
     5     2     5   ar
     6     2     1   ar
     7     5     4   ar
     8    21    18    1
     9    16    14    1
    10    15    13    1
    11    14    13   ar
    12    14     7   ar
    13    13    12   ar
    14     1     7    1
    15     1     3   ar
    16    18    19    1
    17    18    20    1
    18    18    17    1
    19     7     8   ar
    20     4     6    1
    21     4     3   ar
    22    12    17    1
    23    12    10   ar
    24     3    22    1
    25     8    10   ar
    26     8     9    1
    27    10    11    1
    28    24    23    1
    29    22    23   ar
    30    22    30   ar
    31    23    25   ar
    32    32    30    1
    33    30    29   ar
    34    25    26    1
    35    25    27   ar
    36    29    27   ar
    37    29    31    1
    38    27    28    1
@<TRIPOS>MOLECULE
yes_3544
 33 33 0 0 0
SMALL
GASTEIGER

@<TRIPOS>ATOM
      1 C         -27.0980   23.5540  -76.4520 C.ar    1  LIG11       0.0900
      2 C         -27.7610   21.6230  -78.3890 C.ar    1  LIG11      -0.0350
      3 C         -26.0970   22.9660  -77.2410 C.ar    1  LIG11      -0.2000
      4 C         -28.4320   23.1500  -76.6250 C.ar    1  LIG11      -0.1970
      5 C         -26.4250   22.0100  -78.2040 C.ar    1  LIG11      -0.1500
      6 C         -28.7600   22.1900  -77.5830 C.ar    1  LIG11      -0.1380
      7 H         -25.0580   23.2600  -77.1050 H       1  LIG11       0.1560
      8 H         -29.2180   23.5890  -76.0130 H       1  LIG11       0.1580
      9 H         -25.6360   21.5630  -78.8060 H       1  LIG11       0.1490
     10 H         -29.8000   21.8840  -77.7090 H       1  LIG11       0.1570
     11 C         -26.7450   24.6100  -75.4450 C.3     1  LIG11      -0.3530
     12 H         -27.5860   25.3290  -75.3440 H       1  LIG11       0.1550
     13 H         -25.8870   25.2210  -75.7900 H       1  LIG11       0.1550
     14 C         -26.4200   23.9940  -74.0610 C.3     1  LIG11       0.0500
     15 H         -26.9570   23.0160  -73.9780 H       1  LIG11       0.1120
     16 C         -26.9220   24.9170  -72.9450 C.3     1  LIG11      -0.5090
     17 H         -26.3090   24.8300  -72.0420 H       1  LIG11       0.1500
     18 H         -27.9570   24.6910  -72.6650 H       1  LIG11       0.1550
     19 H         -26.8950   25.9660  -73.2590 H       1  LIG11       0.1550
     20 C         -24.9170   23.7330  -73.9150 C.3     1  LIG11      -0.5040
     21 H         -24.6010   22.8470  -74.4760 H       1  LIG11       0.1530
     22 H         -24.6390   23.5710  -72.8670 H       1  LIG11       0.1570
     23 H         -24.3300   24.5810  -74.2840 H       1  LIG11       0.1520
     24 C         -28.1090   20.6040  -79.4460 C.3     1  LIG11      -0.2170
     25 H         -29.2240   20.4640  -79.4860 H       1  LIG11       0.1700
     26 C         -27.6370   21.0540  -80.8290 C.3     1  LIG11      -0.4420
     27 H         -28.0040   20.3790  -81.6110 H       1  LIG11       0.1590
     28 H         -27.9920   22.0650  -81.0730 H       1  LIG11       0.1640
     29 H         -26.5390   21.0810  -80.8850 H       1  LIG11       0.1670
     30 C         -27.5220   19.2320  -79.1180 C.2     1  LIG11       0.6240
     31 O         -26.4480   18.9870  -78.6370 O.2     1  LIG11      -0.4470
     32 O         -28.2970   18.1410  -79.4620 O.3     1  LIG11      -0.5300
     33 H         -29.2700   18.3010  -79.4750 H       1  LIG11       0.3350
@<TRIPOS>BOND
     1    27    26    1
     2    28    26    1
     3    29    26    1
     4    26    24    1
     5    25    24    1
     6    33    32    1
     7    32    30    1
     8    24    30    1
     9    24     2    1
    10    30    31    2
    11     9     5    1
    12     2     5   ar
    13     2     6   ar
    14     5     3   ar
    15    10     6    1
    16     6     4   ar
    17     3     7    1
    18     3     1   ar
    19     4     1   ar
    20     4     8    1
    21     1    11    1
    22    13    11    1
    23    11    12    1
    24    11    14    1
    25    21    20    1
    26    23    20    1
    27    14    15    1
    28    14    20    1
    29    14    16    1
    30    20    22    1
    31    19    16    1
    32    16    18    1
    33    16    17    1
@<TRIPOS>MOLECULE
yes_3584
 41 43 0 0 0
SMALL
GASTEIGER

@<TRIPOS>ATOM
      1 O         -27.8370    9.8300  -82.8220 O.2     1  LIG11      -0.4680
      2 N         -28.2000   12.0170  -82.2930 N.am    1  LIG11      -0.3400
      3 C         -28.5020   14.0590  -81.2690 C.2     1  LIG11      -0.1950
      4 C         -28.5790   13.0360  -80.2380 C.ar    1  LIG11       0.0720
      5 C         -28.3760   11.7750  -80.8800 C.ar    1  LIG11      -0.0070
      6 C         -28.2780   13.4410  -82.4860 C.2     1  LIG11       0.2430
      7 C         -28.8100   13.0970  -78.8660 C.ar    1  LIG11      -0.3370
      8 C         -28.3790   10.5750  -80.1610 C.ar    1  LIG11      -0.0480
      9 C         -28.0060   10.9590  -83.2310 C.2     1  LIG11       0.6140
     10 C         -28.8260   11.8800  -78.1650 C.ar    1  LIG11       0.3380
     11 C         -28.6100   10.6330  -78.7900 C.ar    1  LIG11      -0.3420
     12 H         -28.9580   14.0350  -78.3400 H       1  LIG11       0.1840
     13 H         -28.2050    9.6200  -80.6670 H       1  LIG11       0.1820
     14 H         -28.6160    9.7140  -78.2120 H       1  LIG11       0.1740
     15 C         -28.1290   14.0920  -83.8000 C.3     1  LIG11      -0.5180
     16 H         -29.0920   14.4020  -84.2350 H       1  LIG11       0.1850
     17 H         -27.6530   13.4180  -84.5340 H       1  LIG11       0.1910
     18 H         -27.4840   14.9860  -83.7560 H       1  LIG11       0.1910
     19 C         -28.0460   11.2930  -84.6870 C.ar    1  LIG11      -0.1840
     20 C         -26.8450   11.5060  -85.3790 C.ar    1  LIG11      -0.0600
     21 H         -25.8910   11.4710  -84.8500 H       1  LIG11       0.1630
     22 C         -26.8740   11.7540  -86.7530 C.ar    1  LIG11      -0.2030
     23 H         -25.9490   11.9240  -87.3060 H       1  LIG11       0.1800
     24 C         -28.1090   11.7710  -87.4090 C.ar    1  LIG11       0.0940
     25 CL        -28.1490   12.0830  -89.1010 Cl      1  LIG11      -0.0730
     26 C         -29.3120   11.5410  -86.7340 C.ar    1  LIG11      -0.2020
     27 C         -29.2760   11.2960  -85.3610 C.ar    1  LIG11      -0.0620
     28 H         -30.2610   11.5460  -87.2730 H       1  LIG11       0.1810
     29 H         -30.2030   11.1070  -84.8140 H       1  LIG11       0.1640
     30 C         -28.6380   15.5110  -81.0220 C.3     1  LIG11      -0.4010
     31 H         -29.3920   15.7140  -80.2270 H       1  LIG11       0.1940
     32 H         -29.0400   16.0310  -81.9220 H       1  LIG11       0.1930
     33 C         -27.3170   16.1360  -80.6220 C.2     1  LIG11       0.6550
     34 O         -26.2460   15.5860  -80.6030 O.2     1  LIG11      -0.4650
     35 O         -27.3550   17.4520  -80.2240 O.3     1  LIG11      -0.5180
     36 H         -27.8620   18.0540  -80.8270 H       1  LIG11       0.3430
     37 O         -29.0760   12.0530  -76.8210 O.3     1  LIG11      -0.3720
     38 C         -30.2290   12.8410  -76.4370 C.3     1  LIG11      -0.1900
     39 H         -30.5850   12.5310  -75.4510 H       1  LIG11       0.1410
     40 H         -29.8030   13.8530  -76.4000 H       1  LIG11       0.1630
     41 H         -31.0120   12.7760  -77.1960 H       1  LIG11       0.1410
@<TRIPOS>BOND
     1    25    24    1
     2    24    22   ar
     3    24    26   ar
     4    23    22    1
     5    28    26    1
     6    22    20   ar
     7    26    27   ar
     8    20    21    1
     9    20    19   ar
    10    27    29    1
    11    27    19   ar
    12    19     9    1
    13    17    15    1
    14    16    15    1
    15    15    18    1
    16    15     6    1
    17     9     1    2
    18     9     2   am
    19     6     2    1
    20     6     3    2
    21     2     5    1
    22    32    30    1
    23     3    30    1
    24     3     4    1
    25    30    33    1
    26    30    31    1
    27     5     4   ar
    28     5     8   ar
    29    36    35    1
    30    13     8    1
    31    33    34    2
    32    33    35    1
    33     4     7   ar
    34     8    11   ar
    35     7    12    1
    36     7    10   ar
    37    11    14    1
    38    11    10   ar
    39    10    37    1
    40    41    38    1
    41    37    38    1
    42    38    40    1
    43    38    39    1
@<TRIPOS>MOLECULE
yes_3693
 33 34 0 0 0
SMALL
GASTEIGER

@<TRIPOS>ATOM
      1 C         -27.5340   21.6070  -78.4630 C.ar    1  LIG11       0.0230
      2 C         -26.4000   21.9910  -77.7340 C.ar    1  LIG11      -0.1440
      3 C         -26.5410   22.8070  -76.6060 C.ar    1  LIG11      -0.1520
      4 C         -28.8030   22.0450  -78.0550 C.ar    1  LIG11      -0.1330
      5 C         -27.8030   23.2680  -76.2160 C.ar    1  LIG11      -0.0950
      6 C         -28.9330   22.8800  -76.9420 C.ar    1  LIG11      -0.1460
      7 H         -25.4080   21.6520  -78.0320 H       1  LIG11       0.1580
      8 H         -29.6930   21.7300  -78.5990 H       1  LIG11       0.1540
      9 H         -27.9020   23.9260  -75.3520 H       1  LIG11       0.1610
     10 H         -29.9200   23.2230  -76.6340 H       1  LIG11       0.1550
     11 C         -25.3340   23.2000  -75.8020 C.2     1  LIG11       0.5300
     12 O         -24.2130   23.0660  -76.2450 O.2     1  LIG11      -0.4650
     13 C         -25.5860   23.7610  -74.4400 C.ar    1  LIG11      -0.2160
     14 C         -24.7160   23.4030  -73.3970 C.ar    1  LIG11      -0.0490
     15 H         -23.8770   22.7330  -73.6070 H       1  LIG11       0.1620
     16 C         -24.9230   23.9040  -72.1100 C.ar    1  LIG11      -0.1970
     17 H         -24.2500   23.6220  -71.3020 H       1  LIG11       0.1560
     18 C         -25.9920   24.7720  -71.8630 C.ar    1  LIG11      -0.0790
     19 C         -26.8490   25.1460  -72.9030 C.ar    1  LIG11      -0.1910
     20 H         -26.1560   25.1600  -70.8580 H       1  LIG11       0.1450
     21 C         -26.6460   24.6460  -74.1910 C.ar    1  LIG11      -0.0640
     22 H         -27.6760   25.8290  -72.7120 H       1  LIG11       0.1580
     23 H         -27.3140   24.9530  -75.0010 H       1  LIG11       0.1610
     24 C         -27.3650   20.6920  -79.6560 C.3     1  LIG11      -0.2240
     25 H         -26.3610   20.8930  -80.1230 H       1  LIG11       0.1710
     26 C         -28.4390   20.9110  -80.7220 C.3     1  LIG11      -0.4590
     27 H         -29.4340   20.9910  -80.2590 H       1  LIG11       0.1750
     28 H         -28.2740   21.8310  -81.2940 H       1  LIG11       0.1480
     29 H         -28.4890   20.0810  -81.4390 H       1  LIG11       0.1670
     30 C         -27.3640   19.2350  -79.1910 C.2     1  LIG11       0.6240
     31 O         -26.4430   18.5670  -78.8090 O.2     1  LIG11      -0.4290
     32 O         -28.5900   18.5960  -79.2580 O.3     1  LIG11      -0.5310
     33 H         -28.9540   18.4660  -80.1600 H       1  LIG11       0.3270
@<TRIPOS>BOND
     1    29    26    1
     2    28    26    1
     3    26    27    1
     4    26    24    1
     5    33    32    1
     6    25    24    1
     7    24    30    1
     8    24     1    1
     9    32    30    1
    10    30    31    2
    11     8     4    1
    12     1     4   ar
    13     1     2   ar
    14     4     6   ar
    15     7     2    1
    16     2     3   ar
    17     6    10    1
    18     6     5   ar
    19     3     5   ar
    20     3    11    1
    21    12    11    2
    22     5     9    1
    23    11    13    1
    24    23    21    1
    25    13    21   ar
    26    13    14   ar
    27    21    19   ar
    28    15    14    1
    29    14    16   ar
    30    19    22    1
    31    19    18   ar
    32    16    18   ar
    33    16    17    1
    34    18    20    1
@<TRIPOS>MOLECULE
yes_3694
 32 34 0 0 0
SMALL
GASTEIGER

@<TRIPOS>ATOM
      1 N         -26.4400   21.8760  -77.6090 N.4     1  LIG11      -0.0460
      2 C         -27.6710   20.7780  -79.3150 C.3     1  LIG11      -0.2440
      3 C         -26.1450   20.6940  -79.6460 C.3     1  LIG11      -0.2650
      4 C         -25.3690   21.2870  -78.4420 C.3     1  LIG11      -0.1280
      5 C         -27.7220   21.6510  -78.1100 C.3     1  LIG11       0.0020
      6 C         -26.5110   22.7490  -76.5230 C.3     1  LIG11      -0.2080
      7 C         -28.6370   22.3600  -77.3230 C.3     1  LIG11      -0.2870
      8 C         -27.8790   23.0460  -76.3400 C.3     1  LIG11      -0.0910
      9 H         -28.2280   21.2450  -80.1700 H       1  LIG11       0.1940
     10 H         -25.9310   21.2620  -80.5690 H       1  LIG11       0.1580
     11 H         -25.8410   19.6490  -79.8510 H       1  LIG11       0.1740
     12 H         -24.6320   22.0570  -78.7510 H       1  LIG11       0.1590
     13 H         -24.8150   20.5070  -77.8730 H       1  LIG11       0.1640
     14 H         -29.6990   22.4090  -77.4480 H       1  LIG11       0.1730
     15 H         -28.2670   23.6920  -75.5720 H       1  LIG11       0.1700
     16 C         -25.3790   23.2520  -75.7210 C.2     1  LIG11       0.5490
     17 O         -24.2430   23.2220  -76.1440 O.2     1  LIG11      -0.4480
     18 C         -25.7060   23.8170  -74.3730 C.3     1  LIG11      -0.1910
     19 C         -26.7850   24.6980  -74.2230 C.3     1  LIG11      -0.0990
     20 C         -27.0650   25.2450  -72.9680 C.3     1  LIG11      -0.1740
     21 H         -27.3990   24.9630  -75.0860 H       1  LIG11       0.1560
     22 H         -27.9000   25.9350  -72.8510 H       1  LIG11       0.1550
     23 C         -26.2680   24.9150  -71.8660 C.3     1  LIG11      -0.1010
     24 H         -26.4890   25.3420  -70.8880 H       1  LIG11       0.1480
     25 C         -25.1830   24.0460  -72.0190 C.3     1  LIG11      -0.1720
     26 H         -24.5530   23.8030  -71.1650 H       1  LIG11       0.1560
     27 C         -24.8950   23.5010  -73.2750 C.3     1  LIG11      -0.0780
     28 H         -24.0350   22.8420  -73.4060 H       1  LIG11       0.1590
     29 C         -28.2380   19.3750  -79.1200 C.2     1  LIG11       0.6310
     30 O         -29.3440   19.1320  -78.7060 O.2     1  LIG11      -0.4530
     31 O         -27.4340   18.3040  -79.4030 O.3     1  LIG11      -0.5070
     32 H         -27.8110   17.4120  -79.1910 H       1  LIG11       0.3440
@<TRIPOS>BOND
     1    10     3    1
     2     9     2    1
     3    11     3    1
     4     3     2    1
     5     3     4    1
     6    31    32    1
     7    31    29    1
     8     2    29    1
     9     2     5    1
    10    29    30    2
    11    12     4    1
    12     4    13    1
    13     4     1    1
    14     5     1    1
    15     5     7    1
    16     1     6    1
    17    14     7    1
    18     7     8    1
    19     6     8    1
    20     6    16    1
    21     8    15    1
    22    17    16    2
    23    16    18    1
    24    21    19    1
    25    18    19    1
    26    18    27    1
    27    19    20    1
    28    28    27    1
    29    27    25    1
    30    20    22    1
    31    20    23    1
    32    25    23    1
    33    25    26    1
    34    23    24    1
@<TRIPOS>MOLECULE
yes_388601
 38 39 0 0 0
SMALL
GASTEIGER

@<TRIPOS>ATOM
      1 O         -26.8420   24.5130  -75.3380 O.3     1  LIG11      -0.5120
      2 C         -25.2340   23.1190  -73.4130 C.3     1  LIG11       0.0760
      3 C         -25.6710   24.5910  -73.2200 C.3     1  LIG11       0.0720
      4 C         -25.2900   22.6810  -74.8920 C.3     1  LIG11       0.0060
      5 C         -27.0050   24.8680  -73.9430 C.3     1  LIG11       0.0720
      6 C         -26.6230   23.1040  -75.5580 C.3     1  LIG11       0.3090
      7 H         -25.8260   22.4230  -72.7740 H       1  LIG11       0.1580
      8 H         -24.8560   25.2770  -73.5440 H       1  LIG11       0.1530
      9 H         -24.4170   23.0680  -75.4660 H       1  LIG11       0.1670
     10 H         -27.8400   24.2760  -73.5040 H       1  LIG11       0.1610
     11 H         -27.5140   22.5020  -75.2700 H       1  LIG11       0.1740
     12 O         -26.3290   23.0280  -76.9540 O.3     1  LIG11      -0.4220
     13 C         -26.7640   21.9970  -77.7720 C.ar    1  LIG11       0.3540
     14 C         -28.1720   22.0870  -77.9010 C.ar    1  LIG11      -0.2950
     15 C         -28.8470   21.1500  -78.6660 C.ar    1  LIG11      -0.0320
     16 H         -28.6970   22.8900  -77.3850 H       1  LIG11       0.1810
     17 H         -29.9310   21.2070  -78.7690 H       1  LIG11       0.1460
     18 C         -28.1350   20.1250  -79.3110 C.ar    1  LIG11      -0.2430
     19 H         -28.6690   19.3930  -79.9130 H       1  LIG11       0.1600
     20 C         -26.7540   20.0510  -79.1760 C.ar    1  LIG11      -0.0490
     21 H         -26.2110   19.2460  -79.6770 H       1  LIG11       0.1440
     22 C         -26.0300   20.9820  -78.4000 C.ar    1  LIG11      -0.2500
     23 C         -24.5450   20.7940  -78.3000 C.3     1  LIG11       0.0190
     24 H         -24.0690   20.6630  -79.2910 H       1  LIG11       0.1260
     25 H         -24.2610   19.9260  -77.6560 H       1  LIG11       0.1670
     26 O         -23.9160   21.9110  -77.6440 O.3     1  LIG11      -0.5590
     27 H         -24.0300   22.7270  -78.1770 H       1  LIG11       0.3140
     28 O         -25.2350   21.2500  -74.8270 O.3     1  LIG11      -0.5480
     29 H         -25.5140   20.9440  -73.9340 H       1  LIG11       0.3260
     30 C         -27.3600   26.3610  -74.0170 C.3     1  LIG11      -0.0190
     31 H         -26.4730   27.0070  -73.8870 H       1  LIG11       0.1350
     32 H         -28.1430   26.6250  -73.2780 H       1  LIG11       0.1690
     33 O         -27.9640   26.6360  -75.2830 O.3     1  LIG11      -0.5340
     34 H         -27.4520   27.3540  -75.7390 H       1  LIG11       0.3170
     35 O         -23.8710   23.1150  -72.9660 O.3     1  LIG11      -0.5560
     36 H         -23.5500   22.1870  -72.8840 H       1  LIG11       0.3300
     37 O         -25.9620   24.8210  -71.8370 O.3     1  LIG11      -0.5450
     38 H         -26.8340   24.4150  -71.6130 H       1  LIG11       0.3310
@<TRIPOS>BOND
     1    19    18    1
     2    21    20    1
     3    18    20   ar
     4    18    15   ar
     5    24    23    1
     6    20    22   ar
     7    17    15    1
     8    15    14   ar
     9    22    23    1
    10    22    13   ar
    11    23    25    1
    12    23    26    1
    13    27    26    1
    14    14    13   ar
    15    14    16    1
    16    13    12    1
    17    12     6    1
    18    34    33    1
    19     6     1    1
    20     6    11    1
    21     6     4    1
    22     9     4    1
    23     1     5    1
    24    33    30    1
    25     4    28    1
    26     4     2    1
    27    28    29    1
    28    30     5    1
    29    30    31    1
    30    30    32    1
    31     5    10    1
    32     5     3    1
    33     8     3    1
    34     2     3    1
    35     2    35    1
    36     2     7    1
    37     3    37    1
    38    35    36    1
    39    37    38    1
@<TRIPOS>MOLECULE
yes_3897
 30 31 0 0 0
SMALL
GASTEIGER

@<TRIPOS>ATOM
      1 N         -25.8390   23.8540  -76.2440 N.pl3   1  LIG11      -0.4080
      2 H         -25.9190   24.7770  -76.7280 H       1  LIG11       0.3330
      3 C         -25.9570   22.6990  -77.0730 C.ar    1  LIG11       0.1620
      4 C         -24.7910   22.0760  -77.5670 C.ar    1  LIG11      -0.0700
      5 C         -24.8690   20.9760  -78.4220 C.ar    1  LIG11      -0.0980
      6 CL        -23.2550   22.6850  -77.1130 Cl      1  LIG11      -0.0430
      7 H         -23.9530   20.5070  -78.7920 H       1  LIG11       0.1710
      8 C         -26.1170   20.4750  -78.7950 C.ar    1  LIG11      -0.2170
      9 H         -26.1720   19.6100  -79.4580 H       1  LIG11       0.1700
     10 C         -27.2990   21.0750  -78.3350 C.ar    1  LIG11       0.1320
     11 C         -27.2030   22.1900  -77.4830 C.ar    1  LIG11      -0.1100
     12 CL        -28.6400   22.9580  -76.9500 Cl      1  LIG11      -0.0400
     13 C         -28.6370   20.5610  -78.7380 C.3     1  LIG11      -0.4980
     14 H         -29.0890   21.1920  -79.5230 H       1  LIG11       0.1840
     15 H         -28.6050   19.5360  -79.1280 H       1  LIG11       0.1680
     16 H         -29.3400   20.5680  -77.8910 H       1  LIG11       0.1800
     17 C         -25.5500   23.8250  -74.8840 C.ar    1  LIG11       0.4180
     18 C         -26.2560   24.6850  -73.9950 C.ar    1  LIG11      -0.4610
     19 C         -25.9400   24.6410  -72.6180 C.ar    1  LIG11       0.0530
     20 H         -26.4890   25.3040  -71.9390 H       1  LIG11       0.1190
     21 C         -24.9720   23.7940  -72.1190 C.ar    1  LIG11      -0.3110
     22 C         -24.2630   22.9550  -73.0090 C.ar    1  LIG11       0.0470
     23 H         -24.7470   23.7660  -71.0560 H       1  LIG11       0.1660
     24 C         -24.5330   22.9690  -74.3600 C.ar    1  LIG11      -0.3620
     25 H         -23.4880   22.2940  -72.6140 H       1  LIG11       0.1390
     26 H         -23.9590   22.3360  -75.0360 H       1  LIG11       0.1830
     27 C         -27.2880   25.6050  -74.4910 C.2     1  LIG11       0.6920
     28 O         -27.6020   25.7920  -75.6510 O.2     1  LIG11      -0.5100
     29 O         -27.9910   26.3610  -73.5750 O.3     1  LIG11      -0.5140
     30 H         -28.6320   25.8530  -73.0160 H       1  LIG11       0.3270
@<TRIPOS>BOND
     1    14    13    1
     2     9     8    1
     3    15    13    1
     4     8     5   ar
     5     8    10   ar
     6     7     5    1
     7    13    10    1
     8    13    16    1
     9     5     4   ar
    10    10    11   ar
    11     4     6    1
    12     4     3   ar
    13    11     3   ar
    14    11    12    1
    15     3     1    1
    16     2     1    1
    17     1    17    1
    18    28    27    2
    19    26    24    1
    20    17    24   ar
    21    17    18   ar
    22    27    18    1
    23    27    29    1
    24    24    22   ar
    25    18    19   ar
    26    29    30    1
    27    22    25    1
    28    22    21   ar
    29    19    21   ar
    30    19    20    1
    31    21    23    1
@<TRIPOS>MOLECULE
yes_3904
 33 34 0 0 0
SMALL
GASTEIGER

@<TRIPOS>ATOM
      1 C         -26.3180   22.2030  -77.6920 C.ar    1  LIG11      -0.0210
      2 C         -26.8520   23.1500  -76.7890 C.ar    1  LIG11       0.1170
      3 C         -27.2150   21.3930  -78.4180 C.ar    1  LIG11       0.0800
      4 C         -28.2330   23.2910  -76.6000 C.ar    1  LIG11      -0.2000
      5 C         -28.6000   21.5400  -78.2270 C.ar    1  LIG11      -0.2070
      6 C         -29.1040   22.4770  -77.3270 C.ar    1  LIG11      -0.1150
      7 H         -28.6180   24.0290  -75.8970 H       1  LIG11       0.1700
      8 H         -29.2880   20.9110  -78.7920 H       1  LIG11       0.1570
      9 H         -30.1810   22.5750  -77.1900 H       1  LIG11       0.1490
     10 N         -25.9830   24.0440  -76.0500 N.pl3   1  LIG11      -0.4120
     11 H         -25.0860   24.2870  -76.5150 H       1  LIG11       0.3190
     12 C         -26.1430   24.2970  -74.7010 C.ar    1  LIG11       0.4160
     13 C         -25.3960   23.5690  -73.7290 C.ar    1  LIG11      -0.4890
     14 C         -25.5130   23.9420  -72.3690 C.ar    1  LIG11       0.0650
     15 H         -24.9220   23.3890  -71.6290 H       1  LIG11       0.1160
     16 C         -26.3450   24.9620  -71.9610 C.ar    1  LIG11      -0.3280
     17 C         -27.1160   25.6560  -72.9270 C.ar    1  LIG11       0.0530
     18 H         -26.4160   25.2420  -70.9140 H       1  LIG11       0.1650
     19 C         -27.0290   25.3350  -74.2610 C.ar    1  LIG11      -0.3800
     20 H         -27.7840   26.4540  -72.5970 H       1  LIG11       0.1370
     21 H         -27.6180   25.8750  -75.0020 H       1  LIG11       0.1850
     22 C         -24.5340   22.4530  -74.1240 C.2     1  LIG11       0.6950
     23 O         -23.3160   22.4390  -74.1480 O.2     1  LIG11      -0.5210
     24 O         -25.1300   21.2760  -74.5350 O.3     1  LIG11      -0.5190
     25 H         -25.7260   20.8550  -73.8670 H       1  LIG11       0.3260
     26 C         -24.8380   22.0850  -77.8470 C.3     1  LIG11      -0.4730
     27 H         -24.5670   21.4260  -78.6860 H       1  LIG11       0.1720
     28 H         -24.3480   21.6720  -76.9520 H       1  LIG11       0.1620
     29 H         -24.3820   23.0670  -78.0420 H       1  LIG11       0.1710
     30 C         -26.7440   20.3650  -79.3950 C.3     1  LIG11      -0.4920
     31 H         -27.3900   20.3270  -80.2840 H       1  LIG11       0.1680
     32 H         -25.7190   20.5540  -79.7530 H       1  LIG11       0.1650
     33 H         -26.7460   19.3610  -78.9460 H       1  LIG11       0.1680
@<TRIPOS>BOND
     1    31    30    1
     2    32    30    1
     3    30    33    1
     4    30     3    1
     5     8     5    1
     6    27    26    1
     7     3     5   ar
     8     3     1   ar
     9     5     6   ar
    10    29    26    1
    11    26     1    1
    12    26    28    1
    13     1     2   ar
    14     6     9    1
    15     6     4   ar
    16     2     4   ar
    17     2    10    1
    18     4     7    1
    19    11    10    1
    20    10    12    1
    21    21    19    1
    22    12    19   ar
    23    12    13   ar
    24    24    22    1
    25    24    25    1
    26    19    17   ar
    27    23    22    2
    28    22    13    1
    29    13    14   ar
    30    17    20    1
    31    17    16   ar
    32    14    16   ar
    33    14    15    1
    34    16    18    1
@<TRIPOS>MOLECULE
yes_392692
 54 53 0 0 0
SMALL
GASTEIGER

@<TRIPOS>ATOM
      1 C         -26.2100   23.8890  -73.3850 C.3     1  LIG11      -0.2750
      2 H         -26.2990   23.0660  -74.1340 H       1  LIG11       0.1670
      3 H         -26.7270   23.5100  -72.4760 H       1  LIG11       0.1530
      4 C         -24.7600   24.1210  -73.0800 C.2     1  LIG11      -0.1410
      5 C         -23.7460   23.4400  -73.6230 C.2     1  LIG11      -0.1800
      6 H         -22.7150   23.6820  -73.3610 H       1  LIG11       0.1420
      7 H         -24.5580   24.9190  -72.3610 H       1  LIG11       0.1410
      8 C         -23.8760   22.3200  -74.6140 C.3     1  LIG11      -0.2680
      9 H         -22.9610   21.6870  -74.5770 H       1  LIG11       0.1510
     10 H         -24.7100   21.6390  -74.3400 H       1  LIG11       0.1460
     11 C         -24.0630   22.8340  -76.0120 C.2     1  LIG11      -0.1400
     12 C         -23.1890   22.6860  -77.0120 C.2     1  LIG11      -0.1820
     13 H         -23.4080   23.1050  -77.9980 H       1  LIG11       0.1450
     14 H         -25.0000   23.3710  -76.1780 H       1  LIG11       0.1450
     15 C         -21.8640   21.9900  -76.9310 C.3     1  LIG11      -0.2700
     16 H         -21.7410   21.4580  -75.9680 H       1  LIG11       0.1360
     17 H         -21.0510   22.7520  -76.9600 H       1  LIG11       0.1630
     18 C         -21.6910   21.0130  -78.1030 C.3     1  LIG11      -0.2030
     19 H         -22.4960   20.2520  -78.0760 H       1  LIG11       0.1390
     20 H         -21.8140   21.5580  -79.0630 H       1  LIG11       0.1480
     21 C         -20.3290   20.3100  -78.0780 C.3     1  LIG11      -0.4610
     22 H         -20.2940   19.5810  -77.2400 H       1  LIG11       0.1830
     23 H         -20.2150   19.6980  -79.0090 H       1  LIG11       0.1840
     24 C         -19.1860   21.2780  -77.9520 C.2     1  LIG11       0.6550
     25 O         -18.4310   21.4560  -77.0350 O.2     1  LIG11      -0.4380
     26 O         -18.9760   22.0770  -79.0690 O.3     1  LIG11      -0.5450
     27 H         -18.5270   21.6480  -79.8250 H       1  LIG11       0.3240
     28 C         -26.9180   25.1030  -73.9050 C.2     1  LIG11      -0.1390
     29 C         -27.2230   25.3220  -75.1890 C.2     1  LIG11      -0.1820
     30 H         -27.7270   26.2430  -75.4890 H       1  LIG11       0.1420
     31 H         -27.1820   25.8450  -73.1470 H       1  LIG11       0.1410
     32 C         -26.9240   24.3910  -76.3280 C.3     1  LIG11      -0.2670
     33 H         -25.9940   23.8220  -76.1050 H       1  LIG11       0.1500
     34 H         -26.7010   24.9550  -77.2590 H       1  LIG11       0.1470
     35 C         -28.0480   23.4230  -76.5620 C.2     1  LIG11      -0.1420
     36 C         -27.9560   22.3030  -77.2860 C.2     1  LIG11      -0.1860
     37 H         -28.8250   21.6520  -77.4020 H       1  LIG11       0.1420
     38 H         -28.9900   23.6920  -76.0790 H       1  LIG11       0.1450
     39 C         -26.7210   21.8150  -77.9810 C.3     1  LIG11      -0.2580
     40 H         -26.2320   22.6310  -78.5520 H       1  LIG11       0.1360
     41 H         -25.9770   21.5010  -77.2190 H       1  LIG11       0.1430
     42 C         -27.0340   20.6430  -78.9240 C.3     1  LIG11      -0.2580
     43 H         -26.7330   19.6940  -78.4360 H       1  LIG11       0.1330
     44 H         -26.4100   20.7150  -79.8360 H       1  LIG11       0.1370
     45 C         -28.5180   20.5780  -79.3030 C.3     1  LIG11      -0.2670
     46 H         -29.0920   21.3220  -78.7180 H       1  LIG11       0.1300
     47 H         -28.9250   19.5830  -79.0100 H       1  LIG11       0.1190
     48 C         -28.7570   20.8050  -80.8020 C.3     1  LIG11      -0.2200
     49 H         -27.8430   21.2260  -81.2660 H       1  LIG11       0.1320
     50 H         -28.9280   19.8340  -81.3060 H       1  LIG11       0.1300
     51 C         -29.9410   21.7330  -81.0570 C.3     1  LIG11      -0.4680
     52 H         -30.3980   21.5530  -82.0370 H       1  LIG11       0.1450
     53 H         -30.7260   21.5830  -80.3040 H       1  LIG11       0.1510
     54 H         -29.6500   22.7880  -81.0130 H       1  LIG11       0.1420
@<TRIPOS>BOND
     1    52    51    1
     2    50    48    1
     3    49    48    1
     4    51    54    1
     5    51    48    1
     6    51    53    1
     7    48    45    1
     8    44    42    1
     9    27    26    1
    10    45    47    1
    11    45    42    1
    12    45    46    1
    13    26    24    1
    14    20    18    1
    15    23    21    1
    16    42    43    1
    17    42    39    1
    18    40    39    1
    19    18    21    1
    20    18    19    1
    21    18    15    1
    22    21    24    1
    23    21    22    1
    24    13    12    1
    25    39    36    1
    26    39    41    1
    27    24    25    2
    28    37    36    1
    29    36    35    2
    30    34    32    1
    31    12    15    1
    32    12    11    2
    33    17    15    1
    34    15    16    1
    35    35    32    1
    36    35    38    1
    37    32    33    1
    38    32    29    1
    39    14    11    1
    40    11     8    1
    41    30    29    1
    42    29    28    2
    43     8     9    1
    44     8    10    1
    45     8     5    1
    46     2     1    1
    47    28     1    1
    48    28    31    1
    49     5     6    1
    50     5     4    2
    51     1     4    1
    52     1     3    1
    53     4     7    1
@<TRIPOS>MOLECULE
yes_392977
 23 23 0 0 0
SMALL
GASTEIGER

@<TRIPOS>ATOM
      1 C         -25.2230   23.2100  -75.7190 C.ar    1  LIG11      -0.3540
      2 C         -26.3010   23.7770  -75.0160 C.ar    1  LIG11       0.4040
      3 C         -24.0190   23.0160  -75.0140 C.ar    1  LIG11       0.0630
      4 C         -26.2030   24.1500  -73.6650 C.ar    1  LIG11      -0.3990
      5 C         -23.9000   23.3860  -73.6770 C.ar    1  LIG11      -0.2960
      6 C         -24.9920   23.9520  -73.0040 C.ar    1  LIG11       0.0490
      7 H         -23.1730   22.5560  -75.5410 H       1  LIG11       0.1650
      8 H         -27.0520   24.5830  -73.1460 H       1  LIG11       0.1780
      9 H         -22.9590   23.2280  -73.1500 H       1  LIG11       0.1720
     10 H         -24.8950   24.2390  -71.9550 H       1  LIG11       0.1440
     11 C         -25.2610   22.7440  -77.1330 C.2     1  LIG11       0.6040
     12 N         -26.2250   21.7230  -77.4330 N.am    1  LIG11      -0.2970
     13 H         -26.4120   20.9940  -76.7250 H       1  LIG11       0.2890
     14 O         -24.6500   23.3000  -78.0250 O.2     1  LIG11      -0.5020
     15 O         -25.9130   20.9750  -78.5860 O.3     1  LIG11      -0.3100
     16 C         -26.8940   20.0230  -79.0080 C.2     1  LIG11       0.6720
     17 O         -26.5250   18.9010  -78.7750 O.2     1  LIG11      -0.4500
     18 C         -28.1420   20.4920  -79.6480 C.3     1  LIG11      -0.6130
     19 H         -27.9170   21.2530  -80.4240 H       1  LIG11       0.2250
     20 H         -28.8300   20.9660  -78.9310 H       1  LIG11       0.2070
     21 H         -28.6730   19.6650  -80.1420 H       1  LIG11       0.2000
     22 O         -27.4720   23.9480  -75.7120 O.3     1  LIG11      -0.4920
     23 H         -27.3250   24.1260  -76.6760 H       1  LIG11       0.3410
@<TRIPOS>BOND
     1    19    18    1
     2    21    18    1
     3    18    16    1
     4    18    20    1
     5    16    17    2
     6    16    15    1
     7    15    12    1
     8    14    11    2
     9    12    11   am
    10    12    13    1
    11    11     1    1
    12    23    22    1
    13     1     2   ar
    14     1     3   ar
    15    22     2    1
    16     7     3    1
    17     2     4   ar
    18     3     5   ar
    19     5     9    1
    20     5     6   ar
    21     4     8    1
    22     4     6   ar
    23     6    10    1
@<TRIPOS>MOLECULE
yes_393569
 34 35 0 0 0
SMALL
GASTEIGER

@<TRIPOS>ATOM
      1 F         -24.6740   22.3920  -76.6960 F       1  LIG11      -0.1490
      2 C         -27.4380   21.2450  -78.7090 C.ar    1  LIG11       0.0930
      3 C         -26.9640   22.9250  -76.4810 C.ar    1  LIG11      -0.1160
      4 C         -26.1300   21.4120  -78.2380 C.ar    1  LIG11      -0.2900
      5 C         -28.5010   21.9070  -78.0730 C.ar    1  LIG11      -0.2240
      6 C         -25.9240   22.2470  -77.1370 C.ar    1  LIG11       0.2160
      7 C         -28.2640   22.7340  -76.9730 C.ar    1  LIG11      -0.0790
      8 H         -25.2910   20.9040  -78.7130 H       1  LIG11       0.1810
      9 H         -29.5220   21.7640  -78.4370 H       1  LIG11       0.1840
     10 H         -29.0990   23.2430  -76.4870 H       1  LIG11       0.1590
     11 C         -27.6800   20.3700  -79.9190 C.3     1  LIG11      -0.1830
     12 H         -26.7150   20.2300  -80.4830 H       1  LIG11       0.1810
     13 C         -28.1820   18.9970  -79.4920 C.2     1  LIG11       0.6120
     14 O         -29.1710   18.6890  -78.8720 O.2     1  LIG11      -0.5090
     15 O         -27.2900   18.0590  -79.9620 O.3     1  LIG11      -0.4370
     16 C         -27.8190   17.0190  -80.8260 C.3     1  LIG11      -0.1770
     17 H         -28.7810   17.4380  -81.1440 H       1  LIG11       0.1570
     18 H         -27.1410   16.8620  -81.6710 H       1  LIG11       0.1490
     19 H         -27.9430   16.0950  -80.2530 H       1  LIG11       0.1470
     20 C         -28.7120   21.0010  -80.8550 C.3     1  LIG11      -0.4550
     21 H         -29.2350   21.8380  -80.3760 H       1  LIG11       0.1600
     22 H         -29.4680   20.2640  -81.1570 H       1  LIG11       0.1670
     23 H         -28.2450   21.3830  -81.7750 H       1  LIG11       0.1720
     24 C         -26.7200   23.8000  -75.3160 C.ar    1  LIG11       0.0430
     25 C         -25.9180   23.3430  -74.2580 C.ar    1  LIG11      -0.1720
     26 H         -25.4730   22.3520  -74.3060 H       1  LIG11       0.1550
     27 C         -25.6880   24.1680  -73.1540 C.ar    1  LIG11      -0.1290
     28 H         -25.0620   23.8140  -72.3360 H       1  LIG11       0.1450
     29 C         -26.2520   25.4460  -73.1000 C.ar    1  LIG11      -0.1540
     30 H         -26.0690   26.0880  -72.2410 H       1  LIG11       0.1470
     31 C         -27.0490   25.9010  -74.1550 C.ar    1  LIG11      -0.1300
     32 C         -27.2860   25.0840  -75.2630 C.ar    1  LIG11      -0.1640
     33 H         -27.4850   26.8990  -74.1140 H       1  LIG11       0.1460
     34 H         -27.9050   25.4400  -76.0830 H       1  LIG11       0.1560
@<TRIPOS>BOND
     1    23    20    1
     2    18    16    1
     3    22    20    1
     4    17    16    1
     5    20    21    1
     6    20    11    1
     7    16    19    1
     8    16    15    1
     9    12    11    1
    10    15    13    1
    11    11    13    1
    12    11     2    1
    13    13    14    2
    14     8     4    1
    15     2     4   ar
    16     2     5   ar
    17     9     5    1
    18     4     6   ar
    19     5     7   ar
    20     6     1    1
    21     6     3   ar
    22     7    10    1
    23     7     3   ar
    24     3    24    1
    25    34    32    1
    26    24    32   ar
    27    24    25   ar
    28    32    31   ar
    29    26    25    1
    30    25    27   ar
    31    31    33    1
    32    31    29   ar
    33    27    29   ar
    34    27    28    1
    35    29    30    1
@<TRIPOS>MOLECULE
yes_394812
 30 31 0 0 0
SMALL
GASTEIGER

@<TRIPOS>ATOM
      1 C         -25.0230   23.5100  -74.6990 C.ar    1  LIG11       0.0620
      2 C         -23.8000   23.0580  -75.2140 C.ar    1  LIG11      -0.2270
      3 C         -26.2260   23.1100  -75.3030 C.ar    1  LIG11      -0.2030
      4 C         -24.9810   21.8080  -76.9210 C.ar    1  LIG11      -0.2050
      5 C         -23.7800   22.2160  -76.3280 C.ar    1  LIG11      -0.0490
      6 C         -26.2060   22.2590  -76.4090 C.ar    1  LIG11      -0.0610
      7 H         -22.8610   23.3550  -74.7510 H       1  LIG11       0.1620
      8 H         -27.1790   23.4640  -74.9090 H       1  LIG11       0.1700
      9 H         -22.8260   21.8760  -76.7420 H       1  LIG11       0.1590
     10 H         -27.1450   21.9600  -76.8790 H       1  LIG11       0.1590
     11 C         -25.0380   24.4280  -73.4990 C.3     1  LIG11      -0.2410
     12 H         -24.2540   25.2260  -73.6160 H       1  LIG11       0.1740
     13 C         -24.7390   23.6560  -72.2150 C.3     1  LIG11      -0.4390
     14 H         -24.4910   22.6090  -72.4290 H       1  LIG11       0.1610
     15 H         -23.8930   24.0990  -71.6690 H       1  LIG11       0.1670
     16 H         -25.5930   23.6620  -71.5230 H       1  LIG11       0.1670
     17 C         -26.3800   25.1480  -73.3770 C.2     1  LIG11       0.6260
     18 O         -26.7600   26.1100  -73.9880 O.2     1  LIG11      -0.4360
     19 O         -27.2760   24.5950  -72.4850 O.3     1  LIG11      -0.5250
     20 H         -27.5290   25.1640  -71.7220 H       1  LIG11       0.3340
     21 C         -24.9300   20.9310  -78.1350 C.2     1  LIG11       0.5670
     22 O         -23.8840   20.4750  -78.5480 O.2     1  LIG11      -0.4500
     23 C         -26.2170   20.6360  -78.7810 C.ar    1  LIG11      -0.3330
     24 S         -27.0320   21.7960  -79.7800 S.2     1  LIG11       0.2290
     25 C         -28.3730   20.7390  -80.0490 C.ar    1  LIG11      -0.1510
     26 I         -29.9520   21.3670  -81.2240 I       1  LIG11       0.0330
     27 C         -28.2030   19.5510  -79.4040 C.ar    1  LIG11      -0.1670
     28 H         -28.9020   18.7220  -79.4180 H       1  LIG11       0.1820
     29 C         -26.9640   19.4940  -78.6700 C.ar    1  LIG11      -0.0400
     30 H         -26.6690   18.6220  -78.0920 H       1  LIG11       0.1750
@<TRIPOS>BOND
     1    26    25    1
     2    25    24   ar
     3    25    27   ar
     4    24    23   ar
     5    28    27    1
     6    27    29   ar
     7    23    29   ar
     8    23    21    1
     9    29    30    1
    10    22    21    2
    11    21     4    1
    12     4     6   ar
    13     4     5   ar
    14    10     6    1
    15     9     5    1
    16     6     3   ar
    17     5     2   ar
    18     3     8    1
    19     3     1   ar
    20     2     7    1
    21     2     1   ar
    22     1    11    1
    23    18    17    2
    24    12    11    1
    25    11    17    1
    26    11    13    1
    27    17    19    1
    28    19    20    1
    29    14    13    1
    30    13    15    1
    31    13    16    1
@<TRIPOS>MOLECULE
yes_394942
 31 32 0 0 0
SMALL
GASTEIGER

@<TRIPOS>ATOM
      1 C         -27.4380   21.3500  -78.7070 C.ar    1  LIG11      -0.0030
      2 C         -26.9390   22.9610  -76.4620 C.ar    1  LIG11       0.0100
      3 C         -28.4970   21.9860  -78.0470 C.ar    1  LIG11      -0.1770
      4 C         -26.1240   21.5290  -78.2440 C.ar    1  LIG11      -0.1610
      5 C         -28.2500   22.7860  -76.9300 C.ar    1  LIG11      -0.1500
      6 C         -25.8760   22.3300  -77.1300 C.ar    1  LIG11      -0.1490
      7 H         -29.5210   21.8530  -78.3930 H       1  LIG11       0.1530
      8 H         -25.2930   21.0390  -78.7530 H       1  LIG11       0.1610
      9 H         -29.0780   23.2810  -76.4200 H       1  LIG11       0.1580
     10 H         -24.8550   22.4610  -76.7690 H       1  LIG11       0.1600
     11 C         -26.6700   23.7970  -75.2720 C.ar    1  LIG11       0.0060
     12 C         -25.8060   23.3360  -74.2680 C.ar    1  LIG11      -0.1660
     13 H         -25.3190   22.3680  -74.3750 H       1  LIG11       0.1540
     14 C         -25.5670   24.1200  -73.1380 C.ar    1  LIG11      -0.1300
     15 H         -24.8950   23.7610  -72.3610 H       1  LIG11       0.1470
     16 C         -26.1880   25.3670  -73.0030 C.ar    1  LIG11      -0.1510
     17 H         -26.0030   25.9750  -72.1190 H       1  LIG11       0.1480
     18 C         -27.0480   25.8300  -74.0040 C.ar    1  LIG11      -0.1300
     19 C         -27.2900   25.0510  -75.1380 C.ar    1  LIG11      -0.1660
     20 H         -27.5320   26.7990  -73.8980 H       1  LIG11       0.1470
     21 H         -27.9640   25.4100  -75.9140 H       1  LIG11       0.1540
     22 C         -27.7130   20.4610  -79.8970 C.3     1  LIG11      -0.2250
     23 H         -26.8380   20.4860  -80.6040 H       1  LIG11       0.1720
     24 C         -27.8870   19.0010  -79.4870 C.2     1  LIG11       0.6240
     25 O         -27.0460   18.1430  -79.4450 O.2     1  LIG11      -0.4430
     26 O         -29.1510   18.6370  -79.0620 O.3     1  LIG11      -0.5280
     27 H         -29.1850   17.8780  -78.4340 H       1  LIG11       0.3350
     28 C         -28.9510   20.9400  -80.6580 C.3     1  LIG11      -0.4420
     29 H         -29.5600   21.6150  -80.0400 H       1  LIG11       0.1690
     30 H         -29.5770   20.0950  -80.9650 H       1  LIG11       0.1600
     31 H         -28.6840   21.5000  -81.5650 H       1  LIG11       0.1640
@<TRIPOS>BOND
     1    31    28    1
     2    30    28    1
     3    28    29    1
     4    28    22    1
     5    23    22    1
     6    22    24    1
     7    22     1    1
     8    24    25    2
     9    24    26    1
    10    26    27    1
    11     8     4    1
    12     1     4   ar
    13     1     3   ar
    14     7     3    1
    15     4     6   ar
    16     3     5   ar
    17     6    10    1
    18     6     2   ar
    19     5     2   ar
    20     5     9    1
    21     2    11    1
    22    21    19    1
    23    11    19   ar
    24    11    12   ar
    25    19    18   ar
    26    13    12    1
    27    12    14   ar
    28    18    20    1
    29    18    16   ar
    30    14    16   ar
    31    14    15    1
    32    16    17    1
@<TRIPOS>MOLECULE
yes_4339
 33 34 0 0 0
SMALL
GASTEIGER

@<TRIPOS>ATOM
      1 C         -27.1690   12.6480  -78.7270 C.ar    1  LIG11       0.2980
      2 C         -27.0990   13.6670  -79.7200 C.ar    1  LIG11       0.0500
      3 C         -25.9790   12.3460  -78.0190 C.ar    1  LIG11      -0.3420
      4 C         -25.9340   14.3850  -79.9640 C.ar    1  LIG11      -0.0410
      5 C         -24.7820   14.0660  -79.2290 C.ar    1  LIG11      -0.2780
      6 C         -24.8040   13.0430  -78.2640 C.ar    1  LIG11       0.0410
      7 H         -25.9860   11.5620  -77.2610 H       1  LIG11       0.1830
      8 H         -25.9130   15.1820  -80.7190 H       1  LIG11       0.1970
      9 H         -23.8880   12.8090  -77.7060 H       1  LIG11       0.1760
     10 O         -28.2770   14.0070  -80.4000 O.3     1  LIG11      -0.3760
     11 C         -28.2830   13.7800  -81.7850 C.ar    1  LIG11       0.2940
     12 C         -28.4230   12.4280  -82.1300 C.ar    1  LIG11      -0.2900
     13 H         -28.6150   11.6830  -81.3610 H       1  LIG11       0.1830
     14 C         -28.3270   12.0850  -83.4800 C.ar    1  LIG11      -0.0430
     15 H         -28.4330   11.0420  -83.7800 H       1  LIG11       0.1480
     16 C         -28.1020   13.0710  -84.4500 C.ar    1  LIG11      -0.2300
     17 C         -27.9800   14.4130  -84.0750 C.ar    1  LIG11      -0.0360
     18 H         -28.0280   12.7910  -85.4990 H       1  LIG11       0.1610
     19 C         -28.0710   14.7870  -82.7310 C.ar    1  LIG11      -0.3210
     20 H         -27.8100   15.1780  -84.8340 H       1  LIG11       0.1470
     21 H         -27.9800   15.8280  -82.4330 H       1  LIG11       0.1790
     22 N         -28.3410   11.9200  -78.4840 N.pl3   1  LIG11      -0.8100
     23 H         -28.2320   10.8950  -78.6120 H       1  LIG11       0.3000
     24 S         -29.6150   12.3710  -77.3470 S.O2    1  LIG11       2.5490
     25 O         -30.3680   13.4550  -77.9090 O.2     1  LIG11      -0.8850
     26 O         -28.8140   12.5840  -76.1630 O.2     1  LIG11      -0.9260
     27 C         -30.5740   10.9470  -77.1450 C.3     1  LIG11      -0.9600
     28 H         -30.2080   10.0940  -77.7470 H       1  LIG11       0.2470
     29 H         -31.6300   11.0930  -77.4270 H       1  LIG11       0.2370
     30 H         -30.6010   10.5600  -76.1120 H       1  LIG11       0.2440
     31 N         -23.5360   14.8130  -79.4720 N.pl3   1  LIG11       0.8480
     32 O         -23.3200   15.1920  -80.6130 O.2     1  LIG11      -0.4750
     33 O         -22.7990   15.0120  -78.5210 O.2     1  LIG11      -0.4690
@<TRIPOS>BOND
     1    18    16    1
     2    20    17    1
     3    16    17   ar
     4    16    14   ar
     5    17    19   ar
     6    15    14    1
     7    14    12   ar
     8    19    21    1
     9    19    11   ar
    10    12    11   ar
    11    12    13    1
    12    11    10    1
    13     8     4    1
    14    32    31    2
    15    10     2    1
    16     4     2   ar
    17     4     5   ar
    18     2     1   ar
    19    31     5    1
    20    31    33    2
    21     5     6   ar
    22     1    22    1
    23     1     3   ar
    24    23    22    1
    25    22    24    1
    26     6     3   ar
    27     6     9    1
    28     3     7    1
    29    25    24    2
    30    28    27    1
    31    29    27    1
    32    24    27    1
    33    24    26    2
    34    27    30    1
@<TRIPOS>MOLECULE
yes_4393
 39 40 0 0 0
SMALL
GASTEIGER

@<TRIPOS>ATOM
      1 C         -24.9650   21.7950  -77.9400 C.ar    1  LIG11       0.1450
      2 C         -24.7510   22.9050  -77.0380 C.ar    1  LIG11       0.2620
      3 C         -23.9150   21.0050  -78.3660 C.ar    1  LIG11      -0.1800
      4 C         -23.4570   23.1290  -76.5570 C.ar    1  LIG11      -0.3340
      5 C         -22.6180   21.2860  -77.8810 C.ar    1  LIG11      -0.2220
      6 C         -22.3910   22.3240  -76.9780 C.ar    1  LIG11       0.0010
      7 H         -24.0550   20.1760  -79.0670 H       1  LIG11       0.1930
      8 H         -23.2620   23.9070  -75.8080 H       1  LIG11       0.2080
      9 H         -21.3810   22.5070  -76.5940 H       1  LIG11       0.1750
     10 O         -26.2810   21.6630  -78.3170 O.3     1  LIG11      -0.4480
     11 C         -26.6270   20.7140  -79.3930 C.3     1  LIG11       0.2130
     12 C         -27.0950   19.3950  -78.7760 C.3     1  LIG11      -0.3490
     13 H         -27.8220   19.6000  -77.9650 H       1  LIG11       0.1610
     14 H         -26.2540   18.8630  -78.2920 H       1  LIG11       0.1510
     15 C         -27.7370   18.5070  -79.8510 C.3     1  LIG11      -0.2360
     16 H         -28.1340   17.5860  -79.3840 H       1  LIG11       0.1340
     17 H         -26.9680   18.1730  -80.5740 H       1  LIG11       0.1340
     18 C         -28.8640   19.2440  -80.5890 C.3     1  LIG11      -0.2600
     19 H         -29.7020   19.4410  -79.8930 H       1  LIG11       0.1370
     20 H         -29.2750   18.5980  -81.3880 H       1  LIG11       0.1320
     21 C         -28.3670   20.5670  -81.1900 C.3     1  LIG11      -0.2390
     22 C         -27.7510   21.4670  -80.1140 C.3     1  LIG11      -0.3200
     23 H         -29.2040   21.0940  -81.6870 H       1  LIG11       0.1330
     24 H         -27.6230   20.3640  -81.9860 H       1  LIG11       0.1340
     25 H         -28.5220   21.7790  -79.3820 H       1  LIG11       0.1580
     26 H         -27.3620   22.4040  -80.5550 H       1  LIG11       0.1490
     27 H         -25.7320   20.5860  -80.0370 H       1  LIG11       0.1130
     28 N         -25.8470   23.7230  -76.7280 N.pl3   1  LIG11      -0.8230
     29 H         -26.1330   24.3640  -77.4960 H       1  LIG11       0.3220
     30 S         -26.8880   23.5660  -75.3440 S.O2    1  LIG11       2.5600
     31 O         -26.2010   22.8060  -74.3330 O.2     1  LIG11      -0.9120
     32 O         -28.1250   23.1040  -75.9210 O.2     1  LIG11      -0.9090
     33 C         -27.0550   25.2090  -74.7990 C.3     1  LIG11      -0.9760
     34 H         -27.3720   25.2880  -73.7470 H       1  LIG11       0.2380
     35 H         -27.8050   25.7770  -75.3750 H       1  LIG11       0.2390
     36 H         -26.1340   25.8090  -74.8720 H       1  LIG11       0.2380
     37 N         -21.4960   20.4520  -78.3410 N.pl3   1  LIG11       0.8380
     38 O         -21.7620   19.3790  -78.8640 O.2     1  LIG11      -0.4770
     39 O         -20.3620   20.8750  -78.1740 O.2     1  LIG11      -0.4820
@<TRIPOS>BOND
     1    24    21    1
     2    23    21    1
     3    20    18    1
     4    21    18    1
     5    21    22    1
     6    18    19    1
     7    18    15    1
     8    17    15    1
     9    26    22    1
    10    22    11    1
    11    22    25    1
    12    27    11    1
    13    15    16    1
    14    15    12    1
    15    11    12    1
    16    11    10    1
    17     7     3    1
    18    38    37    2
    19    12    14    1
    20    12    13    1
    21     3     1   ar
    22     3     5   ar
    23    37    39    2
    24    37     5    1
    25    10     1    1
    26     1     2   ar
    27     5     6   ar
    28    29    28    1
    29     2    28    1
    30     2     4   ar
    31     6     9    1
    32     6     4   ar
    33    28    30    1
    34     4     8    1
    35    32    30    2
    36    35    33    1
    37    30    33    1
    38    30    31    2
    39    36    33    1
    40    33    34    1
@<TRIPOS>MOLECULE
yes_4444105
 52 51 0 0 0
SMALL
GASTEIGER

@<TRIPOS>ATOM
      1 C         -23.3940   22.6700  -76.9760 C.2     1  LIG11      -0.1660
      2 C         -23.1990   22.6610  -75.6550 C.2     1  LIG11      -0.1480
      3 H         -22.5510   22.7900  -77.6580 H       1  LIG11       0.1390
      4 H         -22.1960   22.7790  -75.2400 H       1  LIG11       0.1380
      5 C         -24.7230   22.5400  -77.6620 C.3     1  LIG11      -0.2650
      6 H         -25.5370   22.7210  -76.9320 H       1  LIG11       0.1380
      7 H         -24.8430   23.3190  -78.4470 H       1  LIG11       0.1380
      8 C         -24.8700   21.1430  -78.2880 C.3     1  LIG11      -0.2540
      9 H         -24.2510   20.4150  -77.7280 H       1  LIG11       0.1330
     10 H         -24.4610   21.1570  -79.3190 H       1  LIG11       0.1410
     11 C         -26.3330   20.6860  -78.3100 C.3     1  LIG11      -0.2660
     12 H         -26.3930   19.5950  -78.1310 H       1  LIG11       0.1320
     13 H         -26.8860   21.1590  -77.4740 H       1  LIG11       0.1320
     14 C         -27.0030   21.0350  -79.6460 C.3     1  LIG11      -0.2610
     15 H         -26.4380   20.5740  -80.4800 H       1  LIG11       0.1360
     16 H         -26.9510   22.1280  -79.8180 H       1  LIG11       0.1360
     17 C         -28.4650   20.5670  -79.6810 C.3     1  LIG11      -0.2690
     18 H         -29.0330   21.0580  -78.8670 H       1  LIG11       0.1340
     19 H         -28.9410   20.8950  -80.6240 H       1  LIG11       0.1330
     20 C         -28.5570   19.0430  -79.5440 C.3     1  LIG11      -0.2170
     21 H         -29.5920   18.7400  -79.2840 H       1  LIG11       0.1480
     22 H         -27.9310   18.6930  -78.6980 H       1  LIG11       0.1480
     23 C         -28.1220   18.3360  -80.8350 C.3     1  LIG11      -0.4510
     24 H         -28.9320   18.4010  -81.5920 H       1  LIG11       0.1800
     25 H         -27.2480   18.8600  -81.2770 H       1  LIG11       0.1800
     26 C         -27.7780   16.8950  -80.5720 C.2     1  LIG11       0.6510
     27 O         -26.7200   16.3350  -80.6850 O.2     1  LIG11      -0.4380
     28 O         -28.8350   16.1080  -80.1380 O.3     1  LIG11      -0.5400
     29 H         -28.5930   15.3010  -79.6410 H       1  LIG11       0.3250
     30 C         -24.2750   22.5060  -74.6180 C.3     1  LIG11      -0.2720
     31 H         -24.1770   21.5170  -74.1200 H       1  LIG11       0.1450
     32 H         -25.2840   22.4960  -75.0920 H       1  LIG11       0.1490
     33 C         -24.1770   23.6010  -73.5960 C.2     1  LIG11      -0.1520
     34 H         -23.1660   23.7740  -73.2210 H       1  LIG11       0.1370
     35 C         -25.2030   24.3370  -73.1550 C.2     1  LIG11      -0.1600
     36 H         -25.0470   25.1060  -72.3960 H       1  LIG11       0.1380
     37 C         -26.6240   24.2110  -73.6160 C.3     1  LIG11      -0.2690
     38 H         -27.3270   24.2520  -72.7540 H       1  LIG11       0.1430
     39 H         -26.7760   23.2080  -74.0660 H       1  LIG11       0.1410
     40 C         -26.9690   25.3110  -74.6290 C.3     1  LIG11      -0.2560
     41 H         -27.8540   25.8750  -74.2740 H       1  LIG11       0.1360
     42 H         -26.1450   26.0480  -74.6800 H       1  LIG11       0.1330
     43 C         -27.2430   24.7290  -76.0210 C.3     1  LIG11      -0.2680
     44 H         -26.3260   24.7840  -76.6390 H       1  LIG11       0.1300
     45 H         -27.9990   25.3420  -76.5480 H       1  LIG11       0.1320
     46 C         -27.7240   23.2730  -75.9360 C.3     1  LIG11      -0.2210
     47 H         -26.8770   22.5850  -76.1330 H       1  LIG11       0.1270
     48 H         -28.0610   23.0480  -74.9050 H       1  LIG11       0.1270
     49 C         -28.8550   22.9930  -76.9210 C.3     1  LIG11      -0.4640
     50 H         -29.7960   22.7760  -76.4030 H       1  LIG11       0.1460
     51 H         -29.0330   23.8540  -77.5750 H       1  LIG11       0.1450
     52 H         -28.6280   22.1350  -77.5630 H       1  LIG11       0.1450
@<TRIPOS>BOND
     1    24    23    1
     2    25    23    1
     3    23    26    1
     4    23    20    1
     5    27    26    2
     6    19    17    1
     7    26    28    1
     8    15    14    1
     9    28    29    1
    10    16    14    1
    11    17    14    1
    12    17    20    1
    13    17    18    1
    14    14    11    1
    15    20    21    1
    16    20    22    1
    17    10     8    1
    18     7     5    1
    19    11     8    1
    20    11    12    1
    21    11    13    1
    22     8     9    1
    23     8     5    1
    24     5     1    1
    25     5     6    1
    26     3     1    1
    27    51    49    1
    28    52    49    1
    29     1     2    2
    30    49    50    1
    31    49    46    1
    32    44    43    1
    33    45    43    1
    34    47    46    1
    35    43    46    1
    36    43    40    1
    37    46    48    1
    38     2     4    1
    39     2    30    1
    40    32    30    1
    41    42    40    1
    42    40    41    1
    43    40    37    1
    44    30    31    1
    45    30    33    1
    46    39    37    1
    47    37    35    1
    48    37    38    1
    49    33    34    1
    50    33    35    2
    51    35    36    1
@<TRIPOS>MOLECULE
yes_4444112
 52 55 0 0 0
SMALL
GASTEIGER

@<TRIPOS>ATOM
      1 O         -23.4350   29.6390  -88.4480 O.3     1  LIG11      -0.3260
      2 O         -20.5590   29.7130  -85.5080 O.2     1  LIG11      -0.5130
      3 C         -21.8090   28.4930  -87.1160 C.2     1  LIG11      -0.1580
      4 C         -22.7320   28.4690  -88.1150 C.2     1  LIG11       0.3190
      5 C         -21.4420   29.7110  -86.3450 C.2     1  LIG11       0.6200
      6 C         -22.2370   30.8830  -86.7170 C.ar    1  LIG11      -0.5800
      7 C         -23.1960   30.8050  -87.7480 C.ar    1  LIG11       0.5180
      8 C         -22.0990   32.1420  -86.0750 C.ar    1  LIG11       0.5810
      9 C         -23.9830   31.8810  -88.1580 C.ar    1  LIG11      -0.5440
     10 C         -22.8650   33.2560  -86.4440 C.ar    1  LIG11      -0.6840
     11 C         -23.7960   33.0980  -87.4850 C.ar    1  LIG11       0.5550
     12 H         -24.7160   31.7870  -88.9560 H       1  LIG11       0.2250
     13 H         -22.7430   34.2070  -85.9420 H       1  LIG11       0.2010
     14 O         -21.2360   27.3130  -86.6620 O.2     1  LIG11      -0.3720
     15 C         -19.7900   27.2570  -86.7610 C.3     1  LIG11       0.3200
     16 C         -19.3450   26.4990  -85.4910 C.3     1  LIG11       0.0070
     17 H         -20.1220   25.7630  -85.1820 H       1  LIG11       0.1550
     18 C         -17.9530   25.8440  -85.6600 C.3     1  LIG11       0.0970
     19 H         -17.7730   25.1150  -84.8340 H       1  LIG11       0.1490
     20 C         -17.7560   25.1630  -87.0320 C.3     1  LIG11       0.0480
     21 C         -18.2890   25.9960  -88.2210 C.3     1  LIG11       0.1710
     22 H         -16.6780   24.9050  -87.1700 H       1  LIG11       0.1760
     23 O         -19.6360   26.4420  -87.9360 O.3     1  LIG11      -0.5200
     24 H         -18.4860   25.3380  -89.1030 H       1  LIG11       0.1490
     25 H         -19.3250   28.2470  -86.9000 H       1  LIG11       0.1390
     26 O         -19.1340   27.4230  -84.4220 O.3     1  LIG11      -0.5760
     27 H         -19.4740   28.3400  -84.6740 H       1  LIG11       0.3640
     28 O         -16.9330   26.8480  -85.5890 O.3     1  LIG11      -0.5660
     29 H         -16.0510   26.4060  -85.4330 H       1  LIG11       0.3460
     30 O         -18.3990   23.8860  -87.0070 O.3     1  LIG11      -0.5400
     31 H         -19.1030   23.8700  -86.3190 H       1  LIG11       0.3170
     32 C         -17.3790   27.1600  -88.5670 C.3     1  LIG11      -0.5570
     33 H         -16.3260   26.8510  -88.5540 H       1  LIG11       0.1750
     34 H         -17.5980   27.5690  -89.5700 H       1  LIG11       0.1960
     35 H         -17.4890   27.9870  -87.8580 H       1  LIG11       0.1700
     36 C         -23.1920   27.3760  -88.9740 C.ar    1  LIG11      -0.0900
     37 C         -22.3710   26.2340  -89.1530 C.ar    1  LIG11      -0.2240
     38 C         -22.8050   25.2020  -89.9700 C.ar    1  LIG11       0.1710
     39 H         -21.4070   26.1760  -88.6470 H       1  LIG11       0.1780
     40 C         -24.0710   25.2890  -90.6290 C.ar    1  LIG11       0.2650
     41 C         -24.8740   26.4110  -90.4450 C.ar    1  LIG11      -0.3300
     42 H         -25.8430   26.4890  -90.9340 H       1  LIG11       0.1760
     43 C         -24.4330   27.4530  -89.6150 C.ar    1  LIG11      -0.0200
     44 H         -25.0830   28.3280  -89.4580 H       1  LIG11       0.1940
     45 O         -22.0920   24.0540  -90.2090 O.3     1  LIG11      -0.4310
     46 H         -21.1880   24.1030  -89.8070 H       1  LIG11       0.3210
     47 O         -24.4050   24.2260  -91.4170 O.3     1  LIG11      -0.4190
     48 H         -24.7820   24.5210  -92.2890 H       1  LIG11       0.3230
     49 O         -21.1820   32.2030  -85.0850 O.3     1  LIG11      -0.3990
     50 H         -20.4140   31.5810  -85.2260 H       1  LIG11       0.3290
     51 O         -24.5800   34.1230  -87.9110 O.3     1  LIG11      -0.4420
     52 H         -25.2640   33.8370  -88.5750 H       1  LIG11       0.3330
@<TRIPOS>BOND
     1    48    47    1
     2    47    40    1
     3    42    41    1
     4    40    41   ar
     5    40    38   ar
     6    41    43   ar
     7    45    38    1
     8    45    46    1
     9    38    37   ar
    10    43    44    1
    11    43    36   ar
    12    34    32    1
    13    37    36   ar
    14    37    39    1
    15    24    21    1
    16    36     4    1
    17    12     9    1
    18    52    51    1
    19    32    33    1
    20    32    21    1
    21    32    35    1
    22     1     4    1
    23     1     7    1
    24    21    23    1
    25    21    20    1
    26     9     7   ar
    27     9    11   ar
    28     4     3    2
    29    23    15    1
    30    51    11    1
    31     7     6   ar
    32    11    10   ar
    33    22    20    1
    34     3    14    1
    35     3     5    1
    36    20    30    1
    37    20    18    1
    38    30    31    1
    39    25    15    1
    40    15    14    1
    41    15    16    1
    42     6     5    1
    43     6     8   ar
    44    10     8   ar
    45    10    13    1
    46     5     2    2
    47     8    49    1
    48    18    28    1
    49    18    16    1
    50    18    19    1
    51    28    29    1
    52    16    17    1
    53    16    26    1
    54    50    49    1
    55    27    26    1
@<TRIPOS>MOLECULE
yes_4445953
 56 55 0 0 0
SMALL
GASTEIGER

@<TRIPOS>ATOM
      1 C         -28.4390   20.1000  -79.0450 C.3     1  LIG11      -0.2840
      2 H         -28.5490   19.4520  -78.1450 H       1  LIG11       0.1580
      3 H         -29.4350   20.5790  -79.1810 H       1  LIG11       0.1570
      4 C         -28.1290   19.2520  -80.2440 C.2     1  LIG11      -0.1440
      5 H         -27.9180   19.7980  -81.1640 H       1  LIG11       0.1440
      6 C         -28.1160   17.9160  -80.2050 C.2     1  LIG11      -0.1820
      7 H         -28.3220   17.3610  -79.2910 H       1  LIG11       0.1410
      8 C         -27.8190   17.0660  -81.4040 C.3     1  LIG11      -0.2650
      9 H         -28.5580   17.2890  -82.2020 H       1  LIG11       0.1410
     10 H         -26.8300   17.3150  -81.8390 H       1  LIG11       0.1390
     11 C         -27.8650   15.5730  -81.0430 C.3     1  LIG11      -0.2530
     12 H         -27.0310   15.3260  -80.3590 H       1  LIG11       0.1320
     13 H         -27.6960   14.9690  -81.9560 H       1  LIG11       0.1370
     14 C         -29.2050   15.1950  -80.3980 C.3     1  LIG11      -0.2630
     15 H         -29.2820   15.6490  -79.3920 H       1  LIG11       0.1360
     16 H         -30.0400   15.6250  -80.9860 H       1  LIG11       0.1360
     17 C         -29.3640   13.6710  -80.3020 C.3     1  LIG11      -0.2690
     18 H         -29.9970   13.3100  -81.1360 H       1  LIG11       0.1340
     19 H         -29.9080   13.4100  -79.3730 H       1  LIG11       0.1340
     20 C         -28.0030   12.9680  -80.3290 C.3     1  LIG11      -0.2170
     21 H         -27.8240   12.5090  -81.3240 H       1  LIG11       0.1480
     22 H         -27.1830   13.7050  -80.1960 H       1  LIG11       0.1480
     23 C         -27.9130   11.8910  -79.2390 C.3     1  LIG11      -0.4510
     24 H         -27.0580   11.2150  -79.4480 H       1  LIG11       0.1800
     25 H         -28.8220   11.2530  -79.2650 H       1  LIG11       0.1810
     26 C         -27.7590   12.5050  -77.8740 C.2     1  LIG11       0.6510
     27 O         -28.5680   12.6160  -76.9920 O.2     1  LIG11      -0.4380
     28 O         -26.4960   13.0150  -77.6040 O.3     1  LIG11      -0.5400
     29 H         -25.9960   12.5640  -76.8930 H       1  LIG11       0.3250
     30 C         -27.4030   21.1510  -78.7740 C.2     1  LIG11      -0.1430
     31 C         -26.2430   20.8870  -78.1660 C.2     1  LIG11      -0.1760
     32 H         -25.9760   19.8850  -77.8320 H       1  LIG11       0.1420
     33 H         -27.6530   22.1560  -79.1140 H       1  LIG11       0.1440
     34 C         -25.2050   21.9370  -77.8880 C.3     1  LIG11      -0.2740
     35 H         -25.4700   22.8670  -78.4390 H       1  LIG11       0.1520
     36 H         -24.2140   21.6330  -78.2940 H       1  LIG11       0.1500
     37 C         -25.0800   22.2310  -76.4210 C.2     1  LIG11      -0.1450
     38 C         -23.8980   22.3370  -75.8050 C.2     1  LIG11      -0.1800
     39 H         -22.9560   22.2170  -76.3390 H       1  LIG11       0.1410
     40 H         -26.0210   22.3480  -75.8850 H       1  LIG11       0.1460
     41 C         -23.7550   22.6250  -74.3410 C.3     1  LIG11      -0.2650
     42 H         -24.1160   21.7510  -73.7590 H       1  LIG11       0.1400
     43 H         -22.6920   22.7500  -74.0550 H       1  LIG11       0.1380
     44 C         -24.5490   23.8820  -73.9480 C.3     1  LIG11      -0.2540
     45 H         -25.4640   23.9560  -74.5670 H       1  LIG11       0.1320
     46 H         -23.9520   24.7840  -74.1830 H       1  LIG11       0.1360
     47 C         -24.9200   23.8690  -72.4600 C.3     1  LIG11      -0.2680
     48 H         -25.1620   22.8390  -72.1390 H       1  LIG11       0.1320
     49 H         -24.0480   24.1760  -71.8510 H       1  LIG11       0.1330
     50 C         -26.1080   24.7970  -72.1710 C.3     1  LIG11      -0.2210
     51 H         -25.8160   25.5580  -71.4200 H       1  LIG11       0.1260
     52 H         -26.9330   24.2190  -71.7110 H       1  LIG11       0.1270
     53 C         -26.6070   25.4870  -73.4370 C.3     1  LIG11      -0.4640
     54 H         -26.5500   26.5780  -73.3520 H       1  LIG11       0.1470
     55 H         -27.6530   25.2290  -73.6440 H       1  LIG11       0.1440
     56 H         -26.0200   25.1970  -74.3150 H       1  LIG11       0.1470
@<TRIPOS>BOND
     1     9     8    1
     2    13    11    1
     3    10     8    1
     4     8    11    1
     5     8     6    1
     6    21    20    1
     7     5     4    1
     8    18    17    1
     9    11    14    1
    10    11    12    1
    11    16    14    1
    12    14    17    1
    13    14    15    1
    14    20    17    1
    15    20    22    1
    16    20    23    1
    17    17    19    1
    18     4     6    2
    19     4     1    1
    20     6     7    1
    21    24    23    1
    22    25    23    1
    23    23    26    1
    24     3     1    1
    25    33    30    1
    26     1    30    1
    27     1     2    1
    28    30    31    2
    29    35    34    1
    30    36    34    1
    31    31    34    1
    32    31    32    1
    33    34    37    1
    34    26    28    1
    35    26    27    2
    36    28    29    1
    37    37    40    1
    38    37    38    2
    39    39    38    1
    40    38    41    1
    41    45    44    1
    42    41    43    1
    43    41    44    1
    44    41    42    1
    45    56    53    1
    46    46    44    1
    47    44    47    1
    48    55    53    1
    49    53    54    1
    50    53    50    1
    51    47    50    1
    52    47    48    1
    53    47    49    1
    54    50    52    1
    55    50    51    1
@<TRIPOS>MOLECULE
yes_4480
 44 46 0 0 0
SMALL
GASTEIGER

@<TRIPOS>ATOM
      1 O         -29.1270   12.9660  -78.2300 O.2     1  LIG11      -0.4440
      2 O         -30.1360    8.3270  -78.4630 O.2     1  LIG11      -0.4500
      3 N         -30.1990   11.4280  -76.8400 N.am    1  LIG11      -0.2800
      4 N         -30.3850   10.0050  -76.8600 N.am    1  LIG11      -0.3110
      5 C         -29.3570   10.6180  -78.9460 C.3     1  LIG11      -0.3810
      6 C         -29.4710   11.8330  -78.0290 C.2     1  LIG11       0.5780
      7 C         -29.9990    9.4810  -78.1580 C.2     1  LIG11       0.5910
      8 H         -29.9490   10.7920  -79.8830 H       1  LIG11       0.2150
      9 C         -27.8920   10.3400  -79.3070 C.3     1  LIG11      -0.2190
     10 H         -27.8630    9.7110  -80.2240 H       1  LIG11       0.1560
     11 H         -27.3820   11.2890  -79.5700 H       1  LIG11       0.1450
     12 C         -27.1470    9.6420  -78.1650 C.3     1  LIG11      -0.2760
     13 H         -26.5220    8.8170  -78.5600 H       1  LIG11       0.1380
     14 H         -27.8750    9.1590  -77.4770 H       1  LIG11       0.1600
     15 C         -26.2700   10.6330  -77.3890 C.3     1  LIG11      -0.2180
     16 H         -26.8030   10.9830  -76.4830 H       1  LIG11       0.1270
     17 H         -25.3550   10.1250  -77.0250 H       1  LIG11       0.1280
     18 C         -25.8810   11.8300  -78.2530 C.3     1  LIG11      -0.4630
     19 H         -26.4580   11.8620  -79.1840 H       1  LIG11       0.1480
     20 H         -24.8200   11.8010  -78.5280 H       1  LIG11       0.1510
     21 H         -26.0550   12.7730  -77.7230 H       1  LIG11       0.1460
     22 C         -29.8490   12.0140  -75.5560 C.ar    1  LIG11       0.0540
     23 C         -28.8940   11.3080  -74.7930 C.ar    1  LIG11      -0.0800
     24 H         -28.4940   10.3600  -75.1630 H       1  LIG11       0.1760
     25 C         -28.4830   11.8120  -73.5660 C.ar    1  LIG11      -0.2600
     26 H         -27.7520   11.2910  -72.9490 H       1  LIG11       0.1850
     27 C         -29.0320   13.0290  -73.1180 C.ar    1  LIG11       0.3180
     28 C         -29.9800   13.7410  -73.8650 C.ar    1  LIG11      -0.3340
     29 C         -30.3920   13.2230  -75.0940 C.ar    1  LIG11      -0.0830
     30 H         -30.3920   14.6780  -73.5020 H       1  LIG11       0.1700
     31 H         -31.1300   13.7660  -75.6900 H       1  LIG11       0.1700
     32 O         -28.5700   13.4610  -71.9000 O.3     1  LIG11      -0.4660
     33 H         -28.5500   14.4480  -71.8370 H       1  LIG11       0.3240
     34 C         -31.5400    9.4830  -76.1520 C.ar    1  LIG11       0.1970
     35 C         -31.4400    8.8870  -74.8850 C.ar    1  LIG11      -0.2330
     36 C         -32.5850    8.3500  -74.2930 C.ar    1  LIG11      -0.0890
     37 H         -30.4850    8.8370  -74.3610 H       1  LIG11       0.1780
     38 H         -32.5130    7.8820  -73.3110 H       1  LIG11       0.1470
     39 C         -33.8190    8.4140  -74.9470 C.ar    1  LIG11      -0.1900
     40 H         -34.7060    7.9930  -74.4790 H       1  LIG11       0.1520
     41 C         -33.9120    9.0240  -76.2020 C.ar    1  LIG11      -0.0900
     42 H         -34.8740    9.0830  -76.7100 H       1  LIG11       0.1470
     43 C         -32.7780    9.5610  -76.8140 C.ar    1  LIG11      -0.2230
     44 H         -32.8570   10.0520  -77.7880 H       1  LIG11       0.1850
@<TRIPOS>BOND
     1    10     9    1
     2     8     5    1
     3    11     9    1
     4     9     5    1
     5     9    12    1
     6    19    18    1
     7     5     7    1
     8     5     6    1
     9    13    12    1
    10    20    18    1
    11     2     7    2
    12    18    21    1
    13    18    15    1
    14     1     6    2
    15    12    14    1
    16    12    15    1
    17     7     4   am
    18     6     3   am
    19    44    43    1
    20    15    17    1
    21    15    16    1
    22     4     3    1
    23     4    34    1
    24     3    22    1
    25    43    41   ar
    26    43    34   ar
    27    42    41    1
    28    41    39   ar
    29    34    35   ar
    30    31    29    1
    31    22    29   ar
    32    22    23   ar
    33    24    23    1
    34    29    28   ar
    35    39    40    1
    36    39    36   ar
    37    35    37    1
    38    35    36   ar
    39    23    25   ar
    40    36    38    1
    41    28    30    1
    42    28    27   ar
    43    25    27   ar
    44    25    26    1
    45    27    32    1
    46    32    33    1
@<TRIPOS>MOLECULE
yes_4510145
 56 55 0 0 0
SMALL
GASTEIGER

@<TRIPOS>ATOM
      1 C         -28.7340   19.4860  -79.3390 C.3     1  LIG11      -0.2810
      2 H         -29.1250   19.0680  -78.3830 H       1  LIG11       0.1540
      3 H         -29.6320   19.6290  -79.9790 H       1  LIG11       0.1520
      4 C         -28.0480   20.7920  -79.0630 C.2     1  LIG11      -0.1530
      5 C         -26.7740   20.8850  -78.6690 C.2     1  LIG11      -0.1600
      6 H         -26.1470   20.0050  -78.5240 H       1  LIG11       0.1440
      7 H         -28.6760   21.6730  -79.2010 H       1  LIG11       0.1430
      8 C         -26.0940   22.1920  -78.3780 C.3     1  LIG11      -0.2810
      9 H         -25.5360   22.5240  -79.2820 H       1  LIG11       0.1540
     10 H         -26.8350   22.9970  -78.1850 H       1  LIG11       0.1530
     11 C         -25.1570   22.0790  -77.2090 C.2     1  LIG11      -0.1310
     12 C         -24.0750   22.8490  -77.0690 C.2     1  LIG11      -0.1850
     13 H         -23.8080   23.6140  -77.7970 H       1  LIG11       0.1450
     14 H         -25.4220   21.3220  -76.4690 H       1  LIG11       0.1470
     15 C         -23.1340   22.7370  -75.9050 C.3     1  LIG11      -0.2790
     16 H         -22.4570   23.6210  -75.8980 H       1  LIG11       0.1550
     17 H         -22.4600   21.8600  -76.0180 H       1  LIG11       0.1520
     18 C         -23.8630   22.6420  -74.5960 C.2     1  LIG11      -0.1120
     19 H         -24.0770   21.6300  -74.2510 H       1  LIG11       0.1480
     20 C         -24.2250   23.7200  -73.8920 C.2     1  LIG11      -0.2140
     21 H         -24.0110   24.7320  -74.2360 H       1  LIG11       0.1450
     22 C         -24.9600   23.6380  -72.5890 C.3     1  LIG11      -0.2110
     23 H         -24.2650   23.5390  -71.7270 H       1  LIG11       0.1530
     24 H         -25.5790   22.7140  -72.5630 H       1  LIG11       0.1540
     25 C         -25.8540   24.8710  -72.3880 C.3     1  LIG11      -0.4430
     26 H         -26.4640   24.7390  -71.4670 H       1  LIG11       0.1860
     27 H         -25.2280   25.7700  -72.2110 H       1  LIG11       0.1800
     28 C         -26.7540   25.0890  -73.5760 C.2     1  LIG11       0.6490
     29 O         -27.1010   26.1210  -74.0820 O.2     1  LIG11      -0.4400
     30 O         -27.2470   23.9320  -74.1610 O.3     1  LIG11      -0.5380
     31 H         -27.9210   24.0570  -74.8580 H       1  LIG11       0.3250
     32 C         -27.8050   18.5000  -79.9870 C.2     1  LIG11      -0.1390
     33 C         -28.2240   17.3460  -80.5140 C.2     1  LIG11      -0.1780
     34 H         -29.2720   17.0490  -80.5060 H       1  LIG11       0.1430
     35 H         -26.7540   18.7920  -80.0110 H       1  LIG11       0.1470
     36 C         -27.2990   16.3580  -81.1650 C.3     1  LIG11      -0.2750
     37 H         -26.4500   16.1440  -80.4770 H       1  LIG11       0.1520
     38 H         -26.8300   16.7900  -82.0770 H       1  LIG11       0.1510
     39 C         -28.0030   15.0810  -81.5280 C.2     1  LIG11      -0.1390
     40 H         -28.5730   14.6160  -80.7240 H       1  LIG11       0.1470
     41 C         -27.9480   14.5550  -82.7540 C.2     1  LIG11      -0.1790
     42 H         -27.3860   15.0250  -83.5620 H       1  LIG11       0.1430
     43 C         -28.6480   13.2850  -83.1390 C.3     1  LIG11      -0.2730
     44 H         -29.7490   13.3810  -83.0170 H       1  LIG11       0.1490
     45 H         -28.3490   12.4770  -82.4340 H       1  LIG11       0.1510
     46 C         -28.3310   12.8720  -84.5490 C.2     1  LIG11      -0.1460
     47 H         -29.1730   12.4900  -85.1260 H       1  LIG11       0.1450
     48 C         -27.1020   12.9580  -85.0650 C.2     1  LIG11      -0.1810
     49 H         -26.2570   13.3290  -84.4830 H       1  LIG11       0.1410
     50 C         -26.7630   12.5590  -86.4710 C.3     1  LIG11      -0.2240
     51 H         -26.0120   13.2440  -86.9140 H       1  LIG11       0.1320
     52 H         -26.2800   11.5580  -86.4580 H       1  LIG11       0.1350
     53 C         -28.0100   12.5250  -87.3540 C.3     1  LIG11      -0.4540
     54 H         -28.0360   13.3830  -88.0360 H       1  LIG11       0.1510
     55 H         -28.9280   12.5550  -86.7560 H       1  LIG11       0.1470
     56 H         -28.0400   11.6170  -87.9640 H       1  LIG11       0.1430
@<TRIPOS>BOND
     1    54    53    1
     2    56    53    1
     3    53    55    1
     4    53    50    1
     5    51    50    1
     6    50    52    1
     7    50    48    1
     8    47    46    1
     9    48    46    2
    10    48    49    1
    11    46    43    1
    12    42    41    1
    13    43    44    1
    14    43    41    1
    15    43    45    1
    16    41    39    2
    17    38    36    1
    18    39    36    1
    19    39    40    1
    20    36    33    1
    21    36    37    1
    22    33    34    1
    23    33    32    2
    24    35    32    1
    25    32     1    1
    26     3     1    1
    27     1     4    1
    28     1     2    1
    29     9     8    1
    30     7     4    1
    31     4     5    2
    32     5     6    1
    33     5     8    1
    34     8    10    1
    35     8    11    1
    36    13    12    1
    37    11    12    2
    38    11    14    1
    39    12    15    1
    40    17    15    1
    41    15    16    1
    42    15    18    1
    43    31    30    1
    44    18    19    1
    45    18    20    2
    46    21    20    1
    47    30    28    1
    48    29    28    2
    49    20    22    1
    50    28    25    1
    51    22    24    1
    52    22    25    1
    53    22    23    1
    54    25    27    1
    55    25    26    1
@<TRIPOS>MOLECULE
yes_4617
 43 45 0 0 0
SMALL
GASTEIGER

@<TRIPOS>ATOM
      1 O         -29.2340   12.9770  -78.0990 O.2     1  LIG11      -0.4430
      2 O         -30.2040    8.3280  -78.2880 O.2     1  LIG11      -0.4490
      3 N         -30.2190   11.4250  -76.6580 N.am    1  LIG11      -0.3010
      4 N         -30.4050   10.0030  -76.6750 N.am    1  LIG11      -0.3050
      5 C         -29.4590   10.6240  -78.7970 C.3     1  LIG11      -0.3810
      6 C         -29.5550   11.8400  -77.8800 C.2     1  LIG11       0.5820
      7 C         -30.0620    9.4830  -77.9860 C.2     1  LIG11       0.5900
      8 H         -30.0820   10.7910  -79.7150 H       1  LIG11       0.2150
      9 C         -28.0050   10.3580  -79.2080 C.3     1  LIG11      -0.2190
     10 H         -28.0010    9.7390  -80.1310 H       1  LIG11       0.1550
     11 H         -27.5070   11.3100  -79.4810 H       1  LIG11       0.1460
     12 C         -27.2240    9.6520  -78.0930 C.3     1  LIG11      -0.2760
     13 H         -26.6150    8.8280  -78.5120 H       1  LIG11       0.1380
     14 H         -27.9290    9.1660  -77.3850 H       1  LIG11       0.1600
     15 C         -26.3220   10.6370  -77.3390 C.3     1  LIG11      -0.2180
     16 H         -26.8450   11.0190  -76.4400 H       1  LIG11       0.1270
     17 H         -25.4190   10.1140  -76.9660 H       1  LIG11       0.1290
     18 C         -25.9060   11.8060  -78.2280 C.3     1  LIG11      -0.4630
     19 H         -26.7640   12.4250  -78.5110 H       1  LIG11       0.1480
     20 H         -25.4310   11.4590  -79.1540 H       1  LIG11       0.1510
     21 H         -25.1870   12.4560  -77.7170 H       1  LIG11       0.1460
     22 C         -29.8500   12.0240  -75.3850 C.ar    1  LIG11       0.1880
     23 C         -28.9140   11.3170  -74.6080 C.ar    1  LIG11      -0.2140
     24 H         -28.5380   10.3480  -74.9420 H       1  LIG11       0.1830
     25 C         -28.4930   11.8610  -73.3940 C.ar    1  LIG11      -0.0930
     26 H         -27.7710   11.3170  -72.7840 H       1  LIG11       0.1480
     27 C         -28.9880   13.0940  -72.9580 C.ar    1  LIG11      -0.1860
     28 H         -28.6530   13.5110  -72.0110 H       1  LIG11       0.1520
     29 C         -29.9200   13.7870  -73.7370 C.ar    1  LIG11      -0.0920
     30 C         -30.3630   13.2570  -74.9530 C.ar    1  LIG11      -0.2280
     31 H         -30.3090   14.7470  -73.3970 H       1  LIG11       0.1470
     32 H         -31.0960   13.7990  -75.5500 H       1  LIG11       0.1780
     33 C         -31.5440    9.4780  -75.9420 C.ar    1  LIG11       0.1940
     34 C         -31.4080    8.8230  -74.7080 C.ar    1  LIG11      -0.2320
     35 C         -32.5440    8.2910  -74.0920 C.ar    1  LIG11      -0.0890
     36 H         -30.4350    8.7230  -74.2270 H       1  LIG11       0.1780
     37 H         -32.4440    7.7750  -73.1380 H       1  LIG11       0.1470
     38 C         -33.8020    8.4220  -74.6880 C.ar    1  LIG11      -0.1890
     39 H         -34.6820    8.0070  -74.2010 H       1  LIG11       0.1520
     40 C         -33.9290    9.0900  -75.9100 C.ar    1  LIG11      -0.0910
     41 H         -34.9090    9.1990  -76.3740 H       1  LIG11       0.1480
     42 C         -32.8060    9.6200  -76.5470 C.ar    1  LIG11      -0.2200
     43 H         -32.9100   10.1520  -77.4960 H       1  LIG11       0.1840
@<TRIPOS>BOND
     1    10     9    1
     2     8     5    1
     3    11     9    1
     4     9     5    1
     5     9    12    1
     6    20    18    1
     7     5     7    1
     8     5     6    1
     9    13    12    1
    10    19    18    1
    11     2     7    2
    12    18    21    1
    13    18    15    1
    14     1     6    2
    15    12    14    1
    16    12    15    1
    17     7     4   am
    18     6     3   am
    19    43    42    1
    20    15    17    1
    21    15    16    1
    22     4     3    1
    23     4    33    1
    24     3    22    1
    25    42    33   ar
    26    42    40   ar
    27    41    40    1
    28    33    34   ar
    29    40    38   ar
    30    32    30    1
    31    22    30   ar
    32    22    23   ar
    33    30    29   ar
    34    24    23    1
    35    34    36    1
    36    34    35   ar
    37    38    39    1
    38    38    35   ar
    39    23    25   ar
    40    35    37    1
    41    29    31    1
    42    29    27   ar
    43    25    27   ar
    44    25    26    1
    45    27    28    1
@<TRIPOS>MOLECULE
yes_5308
 34 35 0 0 0
SMALL
GASTEIGER

@<TRIPOS>ATOM
      1 N         -27.3420   21.3840  -78.2500 N.4     1  LIG11      -0.0020
      2 C         -27.3240   20.0360  -78.6100 C.3     1  LIG11       0.0230
      3 C         -26.0320   21.7870  -77.9620 C.3     1  LIG11      -0.2160
      4 C         -25.9970   19.5770  -78.5250 C.3     1  LIG11      -0.2810
      5 C         -25.1940   20.6710  -78.1360 C.3     1  LIG11      -0.1110
      6 H         -25.6530   18.5860  -78.7390 H       1  LIG11       0.1670
      7 H         -24.1280   20.6680  -77.9970 H       1  LIG11       0.1670
      8 C         -25.5920   23.1410  -77.5480 C.2     1  LIG11       0.5640
      9 O         -25.1040   23.9070  -78.3520 O.2     1  LIG11      -0.4580
     10 C         -25.7430   23.5070  -76.1100 C.3     1  LIG11      -0.2680
     11 C         -26.8710   24.2420  -75.7100 C.3     1  LIG11      -0.0150
     12 H         -27.6180   24.5260  -76.4550 H       1  LIG11       0.1570
     13 C         -27.0310   24.6120  -74.3770 C.3     1  LIG11      -0.2780
     14 H         -27.9110   25.1770  -74.0730 H       1  LIG11       0.1650
     15 C         -26.0520   24.2730  -73.4270 C.3     1  LIG11       0.1930
     16 C         -24.9130   23.5550  -73.8320 C.3     1  LIG11      -0.2740
     17 C         -24.7600   23.1760  -75.1650 C.3     1  LIG11      -0.0270
     18 H         -24.1450   23.2970  -73.1040 H       1  LIG11       0.1660
     19 H         -23.8690   22.6270  -75.4760 H       1  LIG11       0.1520
     20 C         -26.2150   24.6940  -72.0030 C.3     1  LIG11      -0.5210
     21 H         -27.2590   24.6320  -71.6670 H       1  LIG11       0.1720
     22 H         -25.6210   24.0840  -71.3090 H       1  LIG11       0.1710
     23 H         -25.8940   25.7390  -71.8690 H       1  LIG11       0.1780
     24 C         -28.5280   22.2450  -78.3170 C.3     1  LIG11      -0.3490
     25 H         -29.4530   21.6550  -78.1800 H       1  LIG11       0.1690
     26 H         -28.6060   22.7630  -79.2920 H       1  LIG11       0.1880
     27 H         -28.4970   23.0280  -77.5320 H       1  LIG11       0.1840
     28 C         -28.5430   19.2790  -78.9800 C.3     1  LIG11      -0.4550
     29 H         -28.8720   18.6100  -78.1490 H       1  LIG11       0.2050
     30 H         -29.4030   19.9710  -79.1280 H       1  LIG11       0.2030
     31 C         -28.3140   18.4500  -80.2270 C.2     1  LIG11       0.6580
     32 O         -28.1870   18.8690  -81.3490 O.2     1  LIG11      -0.4580
     33 O         -28.2540   17.0890  -80.0500 O.3     1  LIG11      -0.5100
     34 H         -27.7910   16.5980  -80.7730 H       1  LIG11       0.3410
@<TRIPOS>BOND
     1    32    31    2
     2    34    33    1
     3    31    33    1
     4    31    28    1
     5    26    24    1
     6    30    28    1
     7    28     2    1
     8    28    29    1
     9     6     4    1
    10     2     4    1
    11     2     1    1
    12     4     5    1
    13     9     8    2
    14    24     1    1
    15    24    25    1
    16    24    27    1
    17     1     3    1
    18     5     7    1
    19     5     3    1
    20     3     8    1
    21     8    10    1
    22    12    11    1
    23    10    11    1
    24    10    17    1
    25    11    13    1
    26    19    17    1
    27    17    16    1
    28    13    14    1
    29    13    15    1
    30    16    15    1
    31    16    18    1
    32    15    20    1
    33    20    23    1
    34    20    21    1
    35    20    22    1
@<TRIPOS>MOLECULE
yes_5365258
 31 33 0 0 0
SMALL
GASTEIGER

@<TRIPOS>ATOM
      1 CL        -25.9400   25.2670  -71.7710 Cl      1  LIG11      -0.0930
      2 N         -24.8260   21.9280  -76.4710 N.4     1  LIG11      -0.3290
      3 C         -27.0020   22.7140  -76.2910 C.3     1  LIG11      -0.1230
      4 C         -26.0920   21.9340  -77.0900 C.3     1  LIG11       0.1900
      5 C         -26.2490   23.2040  -75.1510 C.3     1  LIG11      -0.0540
      6 C         -27.8290   21.4840  -78.6670 C.3     1  LIG11       0.1090
      7 C         -24.9060   22.7020  -75.2880 C.3     1  LIG11       0.1330
      8 C         -26.4980   21.3160  -78.2790 C.3     1  LIG11      -0.3150
      9 C         -28.3240   22.8580  -76.7070 C.3     1  LIG11      -0.0380
     10 C         -28.7310   22.2400  -77.8890 C.3     1  LIG11      -0.2780
     11 C         -26.5790   24.0020  -74.0560 C.3     1  LIG11      -0.1250
     12 C         -23.9070   22.9890  -74.3490 C.3     1  LIG11      -0.2260
     13 C         -25.5690   24.2770  -73.1360 C.3     1  LIG11      -0.0040
     14 C         -24.2560   23.7890  -73.2640 C.3     1  LIG11      -0.1100
     15 H         -25.8010   20.7370  -78.8800 H       1  LIG11       0.1790
     16 H         -24.0030   21.4700  -76.8170 H       1  LIG11       0.2820
     17 H         -29.0260   23.4450  -76.1160 H       1  LIG11       0.1520
     18 H         -29.7620   22.3560  -78.2220 H       1  LIG11       0.1620
     19 H         -27.5870   24.3950  -73.9280 H       1  LIG11       0.1720
     20 H         -22.8980   22.6040  -74.4600 H       1  LIG11       0.1670
     21 H         -23.5110   24.0390  -72.5060 H       1  LIG11       0.1670
     22 C         -28.3180   20.8590  -79.9550 C.3     1  LIG11      -0.2460
     23 H         -29.3620   21.2130  -80.1800 H       1  LIG11       0.1750
     24 C         -27.4150   21.2680  -81.1210 C.3     1  LIG11      -0.4360
     25 H         -26.6740   22.0130  -80.8080 H       1  LIG11       0.1610
     26 H         -26.8670   20.4080  -81.5310 H       1  LIG11       0.1660
     27 H         -28.0000   21.6950  -81.9470 H       1  LIG11       0.1660
     28 C         -28.3880   19.3370  -79.8620 C.2     1  LIG11       0.6280
     29 O         -27.9630   18.5300  -80.6470 O.2     1  LIG11      -0.4410
     30 O         -29.0550   18.8290  -78.7660 O.3     1  LIG11      -0.5280
     31 H         -28.6510   18.0300  -78.3550 H       1  LIG11       0.3350
@<TRIPOS>BOND
     1    27    24    1
     2    26    24    1
     3    24    25    1
     4    24    22    1
     5    29    28    2
     6    23    22    1
     7    22    28    1
     8    22     6    1
     9    28    30    1
    10    15     8    1
    11    30    31    1
    12     6     8    1
    13     6    10    1
    14     8     4    1
    15    18    10    1
    16    10     9    1
    17     4     2    1
    18     4     3    1
    19    16     2    1
    20     9     3    1
    21     9    17    1
    22     2     7    1
    23     3     5    1
    24     7     5    1
    25     7    12    1
    26     5    11    1
    27    20    12    1
    28    12    14    1
    29    11    19    1
    30    11    13    1
    31    14    13    1
    32    14    21    1
    33    13     1    1
@<TRIPOS>MOLECULE
yes_581047
 31 33 0 0 0
SMALL
GASTEIGER

@<TRIPOS>ATOM
      1 N         -24.5800   21.7170  -76.3710 N.4     1  LIG11      -0.3350
      2 C         -25.7970   21.6730  -77.0860 C.3     1  LIG11       0.1860
      3 C         -26.1100   23.0530  -75.2460 C.3     1  LIG11      -0.0520
      4 C         -26.7620   22.5070  -76.4210 C.3     1  LIG11      -0.1220
      5 C         -24.7650   22.5360  -75.2320 C.3     1  LIG11       0.1330
      6 C         -27.3980   21.1220  -78.7690 C.3     1  LIG11       0.1200
      7 C         -26.1050   20.9770  -78.2620 C.3     1  LIG11      -0.3120
      8 C         -28.0440   22.6310  -76.9580 C.3     1  LIG11      -0.0420
      9 C         -26.5300   23.9080  -74.2270 C.3     1  LIG11      -0.1250
     10 C         -28.3540   21.9390  -78.1260 C.3     1  LIG11      -0.2620
     11 C         -23.8560   22.8610  -74.2180 C.3     1  LIG11      -0.2290
     12 C         -25.6080   24.2170  -73.2290 C.3     1  LIG11      -0.0040
     13 C         -24.2950   23.7130  -73.2070 C.3     1  LIG11      -0.1120
     14 CL        -26.0980   25.2690  -71.9500 Cl      1  LIG11      -0.0970
     15 H         -23.7640   21.1680  -76.5660 H       1  LIG11       0.2780
     16 H         -25.3670   20.3490  -78.7500 H       1  LIG11       0.1700
     17 H         -27.5400   24.3140  -74.2140 H       1  LIG11       0.1730
     18 H         -28.7880   23.2580  -76.4680 H       1  LIG11       0.1520
     19 H         -22.8460   22.4640  -74.2160 H       1  LIG11       0.1650
     20 H         -29.3560   22.0220  -78.5520 H       1  LIG11       0.1780
     21 H         -23.6210   23.9940  -72.3960 H       1  LIG11       0.1660
     22 C         -27.7680   20.3900  -80.0450 C.3     1  LIG11      -0.1820
     23 H         -26.9350   20.4940  -80.7950 H       1  LIG11       0.1800
     24 C         -29.0570   20.9490  -80.6470 C.3     1  LIG11      -0.4560
     25 H         -28.8590   21.4420  -81.6080 H       1  LIG11       0.1670
     26 H         -29.7990   20.1620  -80.8210 H       1  LIG11       0.1590
     27 H         -29.5200   21.6990  -79.9870 H       1  LIG11       0.1740
     28 C         -27.9450   18.9110  -79.7460 C.2     1  LIG11       0.6260
     29 O         -27.2440   17.9640  -80.0010 O.2     1  LIG11      -0.5030
     30 O         -29.1290   18.7270  -79.0690 O.3     1  LIG11      -0.5370
     31 H         -29.8760   19.2690  -79.4370 H       1  LIG11       0.3410
@<TRIPOS>BOND
     1    25    24    1
     2    26    24    1
     3    23    22    1
     4    24    22    1
     5    24    27    1
     6    22    28    1
     7    22     6    1
     8    29    28    2
     9    28    30    1
    10    31    30    1
    11     6     7    1
    12     6    10    1
    13    16     7    1
    14    20    10    1
    15     7     2    1
    16    10     8    1
    17     2     4    1
    18     2     1    1
    19     8    18    1
    20     8     4    1
    21    15     1    1
    22     4     3    1
    23     1     5    1
    24     3     5    1
    25     3     9    1
    26     5    11    1
    27     9    17    1
    28     9    12    1
    29    11    19    1
    30    11    13    1
    31    12    13    1
    32    12    14    1
    33    13    21    1
@<TRIPOS>MOLECULE
yes_65084
 31 32 0 0 0
SMALL
GASTEIGER

@<TRIPOS>ATOM
      1 F         -24.6830   22.5350  -76.7850 F       1  LIG11      -0.1440
      2 C         -27.4760   21.3150  -78.7140 C.ar    1  LIG11       0.0810
      3 C         -26.9810   22.9690  -76.4710 C.ar    1  LIG11      -0.1080
      4 C         -26.1570   21.5260  -78.2890 C.ar    1  LIG11      -0.3060
      5 C         -28.5390   21.9030  -78.0120 C.ar    1  LIG11      -0.2210
      6 C         -25.9420   22.3470  -77.1820 C.ar    1  LIG11       0.2210
      7 C         -28.2930   22.7200  -76.9060 C.ar    1  LIG11      -0.0760
      8 H         -25.3160   21.0770  -78.8170 H       1  LIG11       0.1810
      9 H         -29.5660   21.7260  -78.3320 H       1  LIG11       0.1720
     10 H         -29.1290   23.1780  -76.3740 H       1  LIG11       0.1620
     11 C         -26.7310   23.8590  -75.3200 C.ar    1  LIG11       0.0350
     12 C         -25.9410   23.4120  -74.2480 C.ar    1  LIG11      -0.1700
     13 H         -25.4940   22.4200  -74.2760 H       1  LIG11       0.1550
     14 C         -25.7250   24.2460  -73.1500 C.ar    1  LIG11      -0.1290
     15 H         -25.1090   23.9000  -72.3200 H       1  LIG11       0.1470
     16 C         -26.2950   25.5230  -73.1110 C.ar    1  LIG11      -0.1500
     17 H         -26.1280   26.1670  -72.2500 H       1  LIG11       0.1480
     18 C         -27.0770   25.9700  -74.1810 C.ar    1  LIG11      -0.1290
     19 C         -27.2960   25.1430  -75.2850 C.ar    1  LIG11      -0.1610
     20 H         -27.5160   26.9670  -74.1530 H       1  LIG11       0.1470
     21 H         -27.9060   25.4920  -76.1170 H       1  LIG11       0.1560
     22 C         -27.7400   20.4570  -79.9300 C.3     1  LIG11      -0.2400
     23 H         -26.8640   20.5090  -80.6340 H       1  LIG11       0.1740
     24 C         -27.9060   18.9910  -79.5320 C.2     1  LIG11       0.6260
     25 O         -27.0640   18.1350  -79.4960 O.2     1  LIG11      -0.4350
     26 O         -29.1750   18.6250  -79.1310 O.3     1  LIG11      -0.5260
     27 H         -29.2550   17.7250  -78.7410 H       1  LIG11       0.3330
     28 C         -28.9800   20.9400  -80.6840 C.3     1  LIG11      -0.4390
     29 H         -29.8230   20.2510  -80.5490 H       1  LIG11       0.1650
     30 H         -29.3190   21.9220  -80.3240 H       1  LIG11       0.1680
     31 H         -28.7830   21.0310  -81.7580 H       1  LIG11       0.1620
@<TRIPOS>BOND
     1    31    28    1
     2    28    29    1
     3    28    30    1
     4    28    22    1
     5    23    22    1
     6    22    24    1
     7    22     2    1
     8    24    25    2
     9    24    26    1
    10    26    27    1
    11     8     4    1
    12     2     4   ar
    13     2     5   ar
    14     9     5    1
    15     4     6   ar
    16     5     7   ar
    17     6     1    1
    18     6     3   ar
    19     7     3   ar
    20     7    10    1
    21     3    11    1
    22    21    19    1
    23    11    19   ar
    24    11    12   ar
    25    19    18   ar
    26    13    12    1
    27    12    14   ar
    28    18    20    1
    29    18    16   ar
    30    14    16   ar
    31    14    15    1
    32    16    17    1
@<TRIPOS>MOLECULE
yes_650
 12 11 0 0 0
SMALL
GASTEIGER

@<TRIPOS>ATOM
      1 O         -35.3370   19.2460  -63.9580 O.2     1  LIG11      -0.4430
      2 C         -36.0020   18.2900  -64.2870 C.2     1  LIG11       0.4250
      3 C         -37.3150   17.9660  -63.5940 C.3     1  LIG11      -0.1500
      4 H         -38.1020   17.7140  -64.3340 H       1  LIG11       0.1600
      5 H         -37.6790   18.7890  -62.9450 H       1  LIG11       0.1790
      6 O         -37.1710   16.8640  -62.7030 O.3     1  LIG11      -0.5090
      7 H         -36.8330   16.0670  -63.1930 H       1  LIG11       0.3290
      8 C         -35.5400   17.3420  -65.3780 C.3     1  LIG11      -0.1500
      9 H         -36.0980   17.5140  -66.3220 H       1  LIG11       0.1610
     10 H         -34.4530   17.4210  -65.5830 H       1  LIG11       0.1790
     11 O         -35.7220   15.9800  -65.0010 O.3     1  LIG11      -0.5100
     12 H         -35.5650   15.3820  -65.7790 H       1  LIG11       0.3290
@<TRIPOS>BOND
     1     9     8    1
     2    12    11    1
     3    10     8    1
     4     8    11    1
     5     8     2    1
     6     4     3    1
     7     2     1    2
     8     2     3    1
     9     3     5    1
    10     3     6    1
    11     7     6    1
@<TRIPOS>MOLECULE
yes_8081394
 36 37 0 0 0
SMALL
GASTEIGER

@<TRIPOS>ATOM
      1 CL        -24.4030   20.4580  -78.7030 Cl      1  LIG11      -0.0730
      2 O         -27.7500   23.5160  -75.0130 O.3     1  LIG11      -0.3570
      3 C         -26.7570   21.6850  -78.0010 C.ar    1  LIG11       0.1090
      4 C         -27.5020   22.4080  -77.0670 C.ar    1  LIG11      -0.3260
      5 C         -26.9010   22.8610  -75.8830 C.ar    1  LIG11       0.3570
      6 C         -25.5490   22.6120  -75.5730 C.ar    1  LIG11      -0.2500
      7 C         -27.1650   24.3010  -73.9480 C.3     1  LIG11       0.1420
      8 C         -25.4040   21.4100  -77.6710 C.ar    1  LIG11      -0.0890
      9 C         -24.8030   21.8620  -76.5000 C.ar    1  LIG11      -0.0410
     10 C         -25.7900   23.8850  -73.5290 C.2     1  LIG11      -0.3920
     11 C         -25.0260   23.0940  -74.3100 C.2     1  LIG11       0.0850
     12 H         -28.5590   22.6380  -77.2270 H       1  LIG11       0.2020
     13 H         -27.9250   24.1740  -73.1290 H       1  LIG11       0.1970
     14 H         -23.7540   21.6340  -76.2930 H       1  LIG11       0.1670
     15 H         -24.0230   22.7740  -74.0140 H       1  LIG11       0.1580
     16 C         -27.4090   21.2010  -79.3060 C.3     1  LIG11       0.2370
     17 C         -27.3400   19.6630  -79.3100 C.3     1  LIG11      -0.5250
     18 H         -27.8790   19.2360  -80.1640 H       1  LIG11       0.1610
     19 H         -27.7640   19.2220  -78.4020 H       1  LIG11       0.1680
     20 H         -26.3010   19.3190  -79.3770 H       1  LIG11       0.1640
     21 C         -28.8930   21.6230  -79.3810 C.3     1  LIG11      -0.5270
     22 H         -29.4990   21.1620  -78.5940 H       1  LIG11       0.1580
     23 H         -29.3360   21.3130  -80.3350 H       1  LIG11       0.1640
     24 H         -29.0080   22.7100  -79.3110 H       1  LIG11       0.1630
     25 C         -26.6920   21.8010  -80.5290 C.3     1  LIG11      -0.5250
     26 H         -25.7550   22.3040  -80.2620 H       1  LIG11       0.1690
     27 H         -26.4130   21.0290  -81.2560 H       1  LIG11       0.1600
     28 H         -27.3160   22.5240  -81.0650 H       1  LIG11       0.1650
     29 C         -27.1700   25.7640  -74.4860 C.3     1  LIG11       0.4160
     30 F         -28.0780   26.5430  -73.8890 F       1  LIG11      -0.1600
     31 F         -26.0060   26.4090  -74.3230 F       1  LIG11      -0.1730
     32 F         -27.4330   25.8840  -75.7950 F       1  LIG11      -0.1760
     33 C         -25.3590   24.3250  -72.1730 C.2     1  LIG11       0.6650
     34 O         -25.8400   25.2050  -71.5120 O.2     1  LIG11      -0.4210
     35 O         -24.3030   23.6290  -71.6310 O.3     1  LIG11      -0.5070
     36 H         -23.9780   22.8690  -72.1720 H       1  LIG11       0.3360
@<TRIPOS>BOND
     1    27    25    1
     2    28    25    1
     3    25    26    1
     4    25    16    1
     5    23    21    1
     6    18    17    1
     7    21    24    1
     8    21    16    1
     9    21    22    1
    10    20    17    1
    11    17    16    1
    12    17    19    1
    13    16     3    1
    14     1     8    1
    15     3     8   ar
    16     3     4   ar
    17     8     9   ar
    18    12     4    1
    19     4     5   ar
    20     9    14    1
    21     9     6   ar
    22     5     6   ar
    23     5     2    1
    24    32    29    1
    25     6    11    1
    26     2     7    1
    27    29    31    1
    28    29     7    1
    29    29    30    1
    30    11    15    1
    31    11    10    2
    32     7    10    1
    33     7    13    1
    34    10    33    1
    35    33    35    1
    36    33    34    2
    37    36    35    1
@<TRIPOS>MOLECULE
yes_8098374
 40 42 0 0 0
SMALL
GASTEIGER

@<TRIPOS>ATOM
      1 N         -26.5050   21.8890  -77.4700 N.ar    1  LIG11      -0.0610
      2 N         -27.7310   21.5560  -78.0150 N.ar    1  LIG11      -0.3180
      3 N         -26.0150   20.5040  -79.1810 N.ar    1  LIG11      -0.4620
      4 C         -25.4630   21.2600  -78.1890 C.ar    1  LIG11       0.2030
      5 C         -27.4010   20.7130  -79.0470 C.ar    1  LIG11       0.3640
      6 C         -26.4470   22.7670  -76.3300 C.ar    1  LIG11       0.0310
      7 C         -25.7410   22.3690  -75.1840 C.ar    1  LIG11      -0.0400
      8 H         -25.2220   21.4050  -75.1670 H       1  LIG11       0.1760
      9 C         -25.6940   23.2110  -74.0720 C.ar    1  LIG11      -0.3440
     10 H         -25.1440   22.9000  -73.1880 H       1  LIG11       0.1760
     11 C         -26.3530   24.4440  -74.1290 C.ar    1  LIG11       0.3280
     12 C         -27.0500   24.8630  -75.2870 C.ar    1  LIG11      -0.2760
     13 C         -27.0830   24.0250  -76.3910 C.ar    1  LIG11      -0.0860
     14 H         -27.5390   25.8350  -75.2930 H       1  LIG11       0.1840
     15 H         -27.6020   24.3390  -77.3000 H       1  LIG11       0.1680
     16 O         -26.4130   25.3720  -73.1170 O.3     1  LIG11      -0.3650
     17 C         -26.2190   24.9090  -71.7580 C.3     1  LIG11      -0.1910
     18 H         -25.1930   25.1030  -71.4320 H       1  LIG11       0.1410
     19 H         -26.9560   25.3680  -71.0930 H       1  LIG11       0.1430
     20 H         -26.4000   23.8310  -71.8620 H       1  LIG11       0.1630
     21 C         -24.0350   21.3960  -77.9240 C.ar    1  LIG11      -0.1560
     22 C         -23.5430   22.4660  -77.1460 C.ar    1  LIG11      -0.0110
     23 H         -24.2400   23.1930  -76.7230 H       1  LIG11       0.1550
     24 C         -22.1830   22.6000  -76.9180 C.ar    1  LIG11      -0.3190
     25 H         -21.7780   23.4140  -76.3200 H       1  LIG11       0.1860
     26 C         -21.3020   21.6520  -77.4870 C.ar    1  LIG11       0.3650
     27 C         -21.7670   20.5890  -78.2730 C.ar    1  LIG11      -0.3870
     28 C         -23.1420   20.4740  -78.4920 C.ar    1  LIG11       0.0300
     29 H         -21.0880   19.8690  -78.7160 H       1  LIG11       0.1760
     30 H         -23.5270   19.6630  -79.1160 H       1  LIG11       0.1590
     31 O         -19.9880   21.9010  -77.1790 O.3     1  LIG11      -0.3650
     32 C         -18.9680   21.1400  -77.8680 C.3     1  LIG11      -0.1920
     33 H         -19.4270   20.4060  -78.5360 H       1  LIG11       0.1430
     34 H         -18.4530   21.9230  -78.4400 H       1  LIG11       0.1630
     35 H         -18.2900   20.6710  -77.1480 H       1  LIG11       0.1420
     36 O         -28.3670   20.1750  -79.8250 O.3     1  LIG11      -0.3060
     37 C         -29.0980   21.1370  -80.6480 C.3     1  LIG11      -0.1750
     38 H         -30.0230   20.6870  -81.0240 H       1  LIG11       0.1530
     39 H         -28.3730   21.3220  -81.4490 H       1  LIG11       0.1550
     40 H         -29.3100   22.0370  -80.0630 H       1  LIG11       0.1500
@<TRIPOS>BOND
     1    39    37    1
     2    38    37    1
     3    37    40    1
     4    37    36    1
     5    36     5    1
     6     3     5   ar
     7     3     4   ar
     8    30    28    1
     9     5     2   ar
    10    29    27    1
    11    33    32    1
    12    28    27   ar
    13    28    21   ar
    14    34    32    1
    15    27    26   ar
    16     4    21    1
    17     4     1   ar
    18     2     1   ar
    19    21    22   ar
    20    32    31    1
    21    32    35    1
    22    26    31    1
    23    26    24   ar
    24     1     6    1
    25    15    13    1
    26    22    24   ar
    27    22    23    1
    28    24    25    1
    29    13     6   ar
    30    13    12   ar
    31     6     7   ar
    32    14    12    1
    33    12    11   ar
    34     7     8    1
    35     7     9   ar
    36    11     9   ar
    37    11    16    1
    38     9    10    1
    39    16    17    1
    40    20    17    1
    41    17    18    1
    42    17    19    1
@<TRIPOS>MOLECULE
yes_8443182
 24 25 0 0 0
SMALL
GASTEIGER

@<TRIPOS>ATOM
      1 CL        -28.5200   23.4940  -76.6110 Cl      1  LIG11       0.0010
      2 CL        -23.1930   22.7320  -76.7640 Cl      1  LIG11      -0.0530
      3 O         -28.6320   21.1950  -78.2930 O.3     1  LIG11      -0.3240
      4 C         -28.8530   20.3190  -79.4260 C.3     1  LIG11       0.1260
      5 C         -27.7500   19.3370  -79.6820 C.2     1  LIG11      -0.3550
      6 C         -26.2290   20.7430  -78.4240 C.ar    1  LIG11      -0.1770
      7 C         -27.3280   21.5100  -77.9870 C.ar    1  LIG11       0.2830
      8 C         -26.5030   19.5550  -79.2190 C.2     1  LIG11       0.0510
      9 C         -24.9330   21.1340  -78.0390 C.ar    1  LIG11      -0.0840
     10 C         -27.1540   22.6280  -77.1410 C.ar    1  LIG11      -0.0820
     11 C         -24.7770   22.2520  -77.2250 C.ar    1  LIG11      -0.0210
     12 C         -25.8710   23.0030  -76.7590 C.ar    1  LIG11      -0.0940
     13 H         -29.8210   19.8210  -79.1360 H       1  LIG11       0.2060
     14 H         -25.6830   18.8510  -79.3850 H       1  LIG11       0.1620
     15 H         -24.0640   20.5670  -78.3770 H       1  LIG11       0.1750
     16 H         -25.7140   23.8710  -76.1090 H       1  LIG11       0.1910
     17 C         -29.0550   21.2600  -80.6520 C.3     1  LIG11       0.4160
     18 F         -29.8950   20.7910  -81.5870 F       1  LIG11      -0.1740
     19 F         -27.9260   21.5200  -81.3160 F       1  LIG11      -0.1530
     20 F         -29.5520   22.4630  -80.3340 F       1  LIG11      -0.1700
     21 C         -28.1510   18.0890  -80.3920 C.2     1  LIG11       0.6590
     22 O         -28.5400   17.0740  -79.8810 O.2     1  LIG11      -0.4170
     23 O         -28.0500   18.1130  -81.7630 O.3     1  LIG11      -0.5030
     24 H         -28.4080   17.3210  -82.2290 H       1  LIG11       0.3340
@<TRIPOS>BOND
     1    24    23    1
     2    23    21    1
     3    18    17    1
     4    19    17    1
     5    17    20    1
     6    17     4    1
     7    21    22    2
     8    21     5    1
     9     5     4    1
    10     5     8    2
    11     4    13    1
    12     4     3    1
    13    14     8    1
    14     8     6    1
    15     6     9   ar
    16     6     7   ar
    17    15     9    1
    18     3     7    1
    19     9    11   ar
    20     7    10   ar
    21    11     2    1
    22    11    12   ar
    23    10    12   ar
    24    10     1    1
    25    12    16    1
@<TRIPOS>MOLECULE
yes_8530675
 28 30 0 0 0
SMALL
GASTEIGER

@<TRIPOS>ATOM
      1 O         -28.8200   22.2170  -77.7760 O.2     1  LIG11      -0.0970
      2 N         -28.9300   23.2370  -76.8530 N.ar    1  LIG11      -0.0960
      3 C         -26.7420   22.5520  -76.9240 C.ar    1  LIG11      -0.2280
      4 C         -27.7160   23.4640  -76.3250 C.ar    1  LIG11       0.0520
      5 C         -27.4740   21.8020  -77.8210 C.ar    1  LIG11       0.2050
      6 C         -25.3250   22.4480  -76.6010 C.ar    1  LIG11       0.0880
      7 C         -24.9090   22.3530  -75.2630 C.ar    1  LIG11      -0.1930
      8 H         -25.6460   22.3250  -74.4630 H       1  LIG11       0.1540
      9 C         -23.5460   22.2810  -74.9620 C.ar    1  LIG11      -0.1230
     10 H         -23.2220   22.2050  -73.9240 H       1  LIG11       0.1450
     11 C         -22.5950   22.3030  -75.9870 C.ar    1  LIG11      -0.1610
     12 H         -21.5350   22.2480  -75.7500 H       1  LIG11       0.1490
     13 C         -23.0090   22.3920  -77.3200 C.ar    1  LIG11      -0.1210
     14 C         -24.3680   22.4630  -77.6310 C.ar    1  LIG11      -0.1760
     15 H         -22.2690   22.4050  -78.1190 H       1  LIG11       0.1470
     16 H         -24.6900   22.5280  -78.6710 H       1  LIG11       0.1630
     17 C         -27.4220   24.4830  -75.3450 C.ar    1  LIG11       0.1390
     18 C         -27.4060   25.8580  -75.3790 C.ar    1  LIG11      -0.1950
     19 H         -27.6280   26.4910  -76.2200 H       1  LIG11       0.1850
     20 C         -27.0310   26.3090  -74.0660 C.ar    1  LIG11      -0.2430
     21 H         -26.9300   27.3310  -73.7520 H       1  LIG11       0.1870
     22 C         -26.8390   25.1770  -73.3140 C.ar    1  LIG11       0.1270
     23 O         -27.0710   24.0140  -74.0580 O.2     1  LIG11      -0.2040
     24 CL        -26.3880   24.9270  -71.7210 Cl      1  LIG11       0.0180
     25 C         -27.1870   20.7180  -78.7620 C.3     1  LIG11      -0.4950
     26 H         -26.3670   20.9860  -79.4510 H       1  LIG11       0.1890
     27 H         -26.8930   19.7940  -78.2360 H       1  LIG11       0.1930
     28 H         -28.0620   20.4760  -79.3900 H       1  LIG11       0.1910
@<TRIPOS>BOND
     1    26    25    1
     2    28    25    1
     3    25    27    1
     4    25     5    1
     5    16    14    1
     6    15    13    1
     7     5     1   ar
     8     5     3   ar
     9     1     2   ar
    10    14    13   ar
    11    14     6   ar
    12    13    11   ar
    13     3     6    1
    14     3     4   ar
    15     2     4   ar
    16     6     7   ar
    17     4    17    1
    18    19    18    1
    19    11    12    1
    20    11     9   ar
    21    18    17   ar
    22    18    20   ar
    23    17    23   ar
    24     7     9   ar
    25     7     8    1
    26     9    10    1
    27    20    21    1
    28    20    22   ar
    29    23    22   ar
    30    22    24    1
@<TRIPOS>MOLECULE
yes_8711
 35 37 0 0 0
SMALL
GASTEIGER

@<TRIPOS>ATOM
      1 O         -25.7990   23.8660  -77.4810 O.3     1  LIG11      -0.4030
      2 C         -24.0460   22.1210  -77.2050 C.3     1  LIG11       0.1260
      3 C         -25.2290   22.6430  -78.0470 C.3     1  LIG11       0.0750
      4 C         -24.3730   22.0080  -75.7090 C.3     1  LIG11      -0.2740
      5 C         -25.2670   23.1020  -75.2220 C.ar    1  LIG11      -0.4450
      6 C         -25.9460   23.9470  -76.1200 C.ar    1  LIG11       0.4920
      7 C         -25.4820   23.3430  -73.8480 C.ar    1  LIG11       0.4700
      8 C         -26.7820   24.9940  -75.7030 C.ar    1  LIG11      -0.5870
      9 C         -26.3100   24.3650  -73.3730 C.ar    1  LIG11      -0.5080
     10 C         -26.9450   25.1760  -74.3230 C.ar    1  LIG11       0.4930
     11 H         -23.6700   21.1520  -77.6170 H       1  LIG11       0.1530
     12 H         -24.8370   23.0500  -79.0160 H       1  LIG11       0.1700
     13 H         -24.8480   21.0220  -75.5120 H       1  LIG11       0.1510
     14 H         -23.4120   22.0170  -75.1480 H       1  LIG11       0.1560
     15 H         -27.2760   25.6160  -76.4380 H       1  LIG11       0.2030
     16 H         -26.4540   24.5230  -72.3070 H       1  LIG11       0.2190
     17 C         -26.3650   21.6790  -78.2910 C.ar    1  LIG11      -0.0460
     18 C         -27.7090   22.0060  -78.1040 C.ar    1  LIG11      -0.1300
     19 C         -28.7230   21.0670  -78.3350 C.ar    1  LIG11      -0.2180
     20 H         -28.0010   23.0060  -77.7800 H       1  LIG11       0.1520
     21 H         -29.7720   21.3200  -78.1860 H       1  LIG11       0.1820
     22 C         -28.3810   19.7880  -78.7730 C.ar    1  LIG11       0.2310
     23 C         -27.0130   19.4580  -78.9790 C.ar    1  LIG11       0.1280
     24 C         -26.0110   20.3870  -78.7390 C.ar    1  LIG11      -0.2280
     25 H         -24.9650   20.1400  -78.9080 H       1  LIG11       0.1730
     26 O         -29.3930   18.8940  -78.9880 O.3     1  LIG11      -0.4430
     27 H         -30.2250   19.3630  -79.2890 H       1  LIG11       0.3410
     28 O         -26.8010   18.1680  -79.4190 O.3     1  LIG11      -0.4830
     29 H         -27.5350   17.8580  -80.0060 H       1  LIG11       0.3350
     30 O         -22.9250   22.9820  -77.4170 O.3     1  LIG11      -0.5450
     31 H         -23.2240   23.8810  -77.6880 H       1  LIG11       0.3240
     32 O         -24.8930   22.5960  -72.8660 O.3     1  LIG11      -0.4570
     33 H         -23.9140   22.5050  -72.9840 H       1  LIG11       0.3250
     34 O         -27.7440   26.1610  -73.8120 O.3     1  LIG11      -0.4580
     35 H         -28.2250   26.6610  -74.5200 H       1  LIG11       0.3280
@<TRIPOS>BOND
     1    29    28    1
     2    28    23    1
     3    27    26    1
     4    12     3    1
     5    26    22    1
     6    23    22   ar
     7    23    24   ar
     8    25    24    1
     9    22    19   ar
    10    24    17   ar
    11    19    21    1
    12    19    18   ar
    13    17    18   ar
    14    17     3    1
    15    18    20    1
    16     3     1    1
    17     3     2    1
    18    31    30    1
    19    11     2    1
    20     1     6    1
    21    30     2    1
    22     2     4    1
    23    15     8    1
    24     6     8   ar
    25     6     5   ar
    26     4    13    1
    27     4     5    1
    28     4    14    1
    29     8    10   ar
    30     5     7   ar
    31    35    34    1
    32    10    34    1
    33    10     9   ar
    34     7     9   ar
    35     7    32    1
    36     9    16    1
    37    33    32    1
@<TRIPOS>MOLECULE
yes_9569918
 37 38 0 0 0
SMALL
GASTEIGER

@<TRIPOS>ATOM
      1 CL        -28.7320   22.7740  -77.5080 Cl      1  LIG11       0.0180
      2 CL        -23.8260   20.8470  -78.6870 Cl      1  LIG11      -0.0180
      3 O         -27.5530   23.5060  -75.0400 O.3     1  LIG11      -0.3310
      4 C         -27.0770   24.2920  -73.9160 C.3     1  LIG11       0.1370
      5 C         -25.2740   22.7370  -75.4760 C.ar    1  LIG11      -0.2750
      6 C         -26.6210   22.9150  -75.8550 C.ar    1  LIG11       0.3770
      7 C         -25.7290   23.9000  -73.4010 C.2     1  LIG11      -0.3930
      8 C         -24.8720   23.1830  -74.1560 C.2     1  LIG11       0.0900
      9 C         -26.2430   21.7840  -77.9580 C.ar    1  LIG11       0.3740
     10 C         -27.1200   22.4470  -77.0890 C.ar    1  LIG11      -0.2680
     11 C         -24.3970   22.0970  -76.3770 C.ar    1  LIG11       0.0010
     12 C         -24.8760   21.6290  -77.5900 C.ar    1  LIG11      -0.1660
     13 H         -27.8980   24.1270  -73.1640 H       1  LIG11       0.2010
     14 H         -23.8820   22.8900  -73.7960 H       1  LIG11       0.1570
     15 H         -23.3450   21.9630  -76.1130 H       1  LIG11       0.1690
     16 O         -26.5630   21.3690  -79.2120 O.3     1  LIG11      -0.3980
     17 C         -27.5940   20.3250  -79.3680 C.3     1  LIG11      -0.0290
     18 H         -27.0620   19.3620  -79.2910 H       1  LIG11       0.1310
     19 H         -28.3600   20.4030  -78.5870 H       1  LIG11       0.1400
     20 C         -28.1270   20.6110  -80.7830 C.3     1  LIG11      -0.0060
     21 H         -27.3550   21.2300  -81.3170 H       1  LIG11       0.1450
     22 C         -28.3100   19.2870  -81.5310 C.3     1  LIG11      -0.5010
     23 H         -29.2030   19.2940  -82.1670 H       1  LIG11       0.1560
     24 H         -28.3930   18.4380  -80.8420 H       1  LIG11       0.1540
     25 H         -27.4520   19.0880  -82.1840 H       1  LIG11       0.1620
     26 C         -29.4290   21.4110  -80.7240 C.3     1  LIG11      -0.4940
     27 H         -30.2800   20.7980  -80.4120 H       1  LIG11       0.1530
     28 H         -29.6770   21.8390  -81.7030 H       1  LIG11       0.1550
     29 H         -29.3410   22.2450  -80.0140 H       1  LIG11       0.1660
     30 C         -27.0760   25.7660  -74.4230 C.3     1  LIG11       0.4160
     31 F         -27.2780   25.8770  -75.7400 F       1  LIG11      -0.1550
     32 F         -28.0280   26.5280  -73.8660 F       1  LIG11      -0.1720
     33 F         -25.9390   26.4380  -74.1970 F       1  LIG11      -0.1720
     34 C         -25.4360   24.2720  -71.9890 C.2     1  LIG11       0.6660
     35 O         -26.0170   25.0880  -71.3250 O.2     1  LIG11      -0.4220
     36 O         -24.4020   23.5880  -71.3930 O.3     1  LIG11      -0.5070
     37 H         -23.7660   23.1600  -72.0140 H       1  LIG11       0.3350
@<TRIPOS>BOND
     1    25    22    1
     2    23    22    1
     3    28    26    1
     4    22    24    1
     5    22    20    1
     6    21    20    1
     7    20    26    1
     8    20    17    1
     9    26    27    1
    10    26    29    1
    11    17    18    1
    12    17    16    1
    13    17    19    1
    14    16     9    1
    15     2    12    1
    16     9    12   ar
    17     9    10   ar
    18    12    11   ar
    19     1    10    1
    20    10     6   ar
    21    11    15    1
    22    11     5   ar
    23     6     5   ar
    24     6     3    1
    25    31    30    1
    26     5     8    1
    27     3     4    1
    28    30    33    1
    29    30     4    1
    30    30    32    1
    31     8    14    1
    32     8     7    2
    33     4     7    1
    34     4    13    1
    35     7    34    1
    36    37    36    1
    37    34    36    1
    38    34    35    2
